<?xml version='1.0' encoding='UTF-8'?>
<net xmlns:xsi="http://www.w3.org/2001/XMLSchema-instance" version="1.20" junctionCornerDetail="5" limitTurnSpeed="5.50" xsi:noNamespaceSchemaLocation="http://sumo.dlr.de/xsd/net_file.xsd">

    <location netOffset="500.00,500.00" convBoundary="0.00,0.00,2400.00,1500.00" origBoundary="-500.00,-500.00,1900.00,1000.00" projParameter="!" />

    <type id="arterial" numLanes="3" speed="5.56" />
    <type id="cross" numLanes="2" speed="3.61" />

    <edge id=":A0_0" function="internal">
        <lane id=":A0_0_0" index="0" speed="4.58" length="9.03" shape="495.20,513.60 494.85,511.15 493.80,509.40 492.05,508.35 489.60,508.00" />
    </edge>
    <edge id=":A0_1" function="internal">
        <lane id=":A0_1_0" index="0" speed="3.61" length="27.20" shape="495.20,513.60 495.20,486.40" />
        <lane id=":A0_1_1" index="1" speed="3.61" length="27.20" shape="498.40,513.60 498.40,486.40" />
    </edge>
    <edge id=":A0_3" function="internal">
        <lane id=":A0_3_0" index="0" speed="4.58" length="6.30" shape="498.40,513.60 499.11,507.34" />
    </edge>
    <edge id=":A0_18" function="internal">
        <lane id=":A0_18_0" index="0" speed="4.58" length="15.70" shape="499.11,507.34 499.15,506.95 501.40,502.20 505.15,499.35 510.40,498.40" />
    </edge>
    <edge id=":A0_4" function="internal">
        <lane id=":A0_4_0" index="0" speed="4.58" length="9.03" shape="510.40,508.00 507.95,508.35 506.20,509.40 505.15,511.15 504.80,513.60" />
    </edge>
    <edge id=":A0_5" function="internal">
        <lane id=":A0_5_0" index="0" speed="5.56" length="20.80" shape="510.40,508.00 489.60,508.00" />
        <lane id=":A0_5_1" index="1" speed="5.56" length="20.80" shape="510.40,504.80 489.60,504.80" />
        <lane id=":A0_5_2" index="2" speed="5.56" length="20.80" shape="510.40,501.60 489.60,501.60" />
    </edge>
    <edge id=":A0_8" function="internal">
        <lane id=":A0_8_0" index="0" speed="4.58" length="4.01" shape="510.40,501.60 506.45,500.89" />
    </edge>
    <edge id=":A0_19" function="internal">
        <lane id=":A0_19_0" index="0" speed="4.58" length="17.98" shape="506.45,500.89 505.15,500.65 501.40,497.80 499.15,493.05 498.40,486.40" />
    </edge>
    <edge id=":A0_9" function="internal">
        <lane id=":A0_9_0" index="0" speed="4.58" length="9.03" shape="504.80,486.40 505.15,488.85 506.20,490.60 507.95,491.65 510.40,492.00" />
    </edge>
    <edge id=":A0_10" function="internal">
        <lane id=":A0_10_0" index="0" speed="3.61" length="27.20" shape="504.80,486.40 504.80,513.60" />
        <lane id=":A0_10_1" index="1" speed="3.61" length="27.20" shape="501.60,486.40 501.60,513.60" />
    </edge>
    <edge id=":A0_12" function="internal">
        <lane id=":A0_12_0" index="0" speed="4.58" length="6.30" shape="501.60,486.40 500.89,492.66" />
    </edge>
    <edge id=":A0_20" function="internal">
        <lane id=":A0_20_0" index="0" speed="4.58" length="15.70" shape="500.89,492.66 500.85,493.05 498.60,497.80 494.85,500.65 489.60,501.60" />
    </edge>
    <edge id=":A0_13" function="internal">
        <lane id=":A0_13_0" index="0" speed="4.58" length="9.03" shape="489.60,492.00 492.05,491.65 493.80,490.60 494.85,488.85 495.20,486.40" />
    </edge>
    <edge id=":A0_14" function="internal">
        <lane id=":A0_14_0" index="0" speed="5.56" length="20.80" shape="489.60,492.00 510.40,492.00" />
        <lane id=":A0_14_1" index="1" speed="5.56" length="20.80" shape="489.60,495.20 510.40,495.20" />
        <lane id=":A0_14_2" index="2" speed="5.56" length="20.80" shape="489.60,498.40 510.40,498.40" />
    </edge>
    <edge id=":A0_17" function="internal">
        <lane id=":A0_17_0" index="0" speed="4.58" length="4.01" shape="489.60,498.40 493.55,499.11" />
    </edge>
    <edge id=":A0_21" function="internal">
        <lane id=":A0_21_0" index="0" speed="4.58" length="17.98" shape="493.55,499.11 494.85,499.35 498.60,502.20 500.85,506.95 501.60,513.60" />
    </edge>
    <edge id=":A1_0" function="internal">
        <lane id=":A1_0_0" index="0" speed="4.58" length="9.03" shape="495.20,1013.60 494.85,1011.15 493.80,1009.40 492.05,1008.35 489.60,1008.00" />
    </edge>
    <edge id=":A1_1" function="internal">
        <lane id=":A1_1_0" index="0" speed="3.61" length="27.20" shape="495.20,1013.60 495.20,986.40" />
        <lane id=":A1_1_1" index="1" speed="3.61" length="27.20" shape="498.40,1013.60 498.40,986.40" />
    </edge>
    <edge id=":A1_3" function="internal">
        <lane id=":A1_3_0" index="0" speed="4.58" length="6.30" shape="498.40,1013.60 499.11,1007.34" />
    </edge>
    <edge id=":A1_18" function="internal">
        <lane id=":A1_18_0" index="0" speed="4.58" length="15.70" shape="499.11,1007.34 499.15,1006.95 501.40,1002.20 505.15,999.35 510.40,998.40" />
    </edge>
    <edge id=":A1_4" function="internal">
        <lane id=":A1_4_0" index="0" speed="4.58" length="9.03" shape="510.40,1008.00 507.95,1008.35 506.20,1009.40 505.15,1011.15 504.80,1013.60" />
    </edge>
    <edge id=":A1_5" function="internal">
        <lane id=":A1_5_0" index="0" speed="5.56" length="20.80" shape="510.40,1008.00 489.60,1008.00" />
        <lane id=":A1_5_1" index="1" speed="5.56" length="20.80" shape="510.40,1004.80 489.60,1004.80" />
        <lane id=":A1_5_2" index="2" speed="5.56" length="20.80" shape="510.40,1001.60 489.60,1001.60" />
    </edge>
    <edge id=":A1_8" function="internal">
        <lane id=":A1_8_0" index="0" speed="4.58" length="4.01" shape="510.40,1001.60 506.45,1000.89" />
    </edge>
    <edge id=":A1_19" function="internal">
        <lane id=":A1_19_0" index="0" speed="4.58" length="17.98" shape="506.45,1000.89 505.15,1000.65 501.40,997.80 499.15,993.05 498.40,986.40" />
    </edge>
    <edge id=":A1_9" function="internal">
        <lane id=":A1_9_0" index="0" speed="4.58" length="9.03" shape="504.80,986.40 505.15,988.85 506.20,990.60 507.95,991.65 510.40,992.00" />
    </edge>
    <edge id=":A1_10" function="internal">
        <lane id=":A1_10_0" index="0" speed="3.61" length="27.20" shape="504.80,986.40 504.80,1013.60" />
        <lane id=":A1_10_1" index="1" speed="3.61" length="27.20" shape="501.60,986.40 501.60,1013.60" />
    </edge>
    <edge id=":A1_12" function="internal">
        <lane id=":A1_12_0" index="0" speed="4.58" length="6.30" shape="501.60,986.40 500.89,992.66" />
    </edge>
    <edge id=":A1_20" function="internal">
        <lane id=":A1_20_0" index="0" speed="4.58" length="15.70" shape="500.89,992.66 500.85,993.05 498.60,997.80 494.85,1000.65 489.60,1001.60" />
    </edge>
    <edge id=":A1_13" function="internal">
        <lane id=":A1_13_0" index="0" speed="4.58" length="9.03" shape="489.60,992.00 492.05,991.65 493.80,990.60 494.85,988.85 495.20,986.40" />
    </edge>
    <edge id=":A1_14" function="internal">
        <lane id=":A1_14_0" index="0" speed="5.56" length="20.80" shape="489.60,992.00 510.40,992.00" />
        <lane id=":A1_14_1" index="1" speed="5.56" length="20.80" shape="489.60,995.20 510.40,995.20" />
        <lane id=":A1_14_2" index="2" speed="5.56" length="20.80" shape="489.60,998.40 510.40,998.40" />
    </edge>
    <edge id=":A1_17" function="internal">
        <lane id=":A1_17_0" index="0" speed="4.58" length="4.01" shape="489.60,998.40 493.55,999.11" />
    </edge>
    <edge id=":A1_21" function="internal">
        <lane id=":A1_21_0" index="0" speed="4.58" length="17.98" shape="493.55,999.11 494.85,999.35 498.60,1002.20 500.85,1006.95 501.60,1013.60" />
    </edge>
    <edge id=":B0_0" function="internal">
        <lane id=":B0_0_0" index="0" speed="4.58" length="9.03" shape="1195.20,513.60 1194.85,511.15 1193.80,509.40 1192.05,508.35 1189.60,508.00" />
    </edge>
    <edge id=":B0_1" function="internal">
        <lane id=":B0_1_0" index="0" speed="3.61" length="27.20" shape="1195.20,513.60 1195.20,486.40" />
        <lane id=":B0_1_1" index="1" speed="3.61" length="27.20" shape="1198.40,513.60 1198.40,486.40" />
    </edge>
    <edge id=":B0_3" function="internal">
        <lane id=":B0_3_0" index="0" speed="4.58" length="6.30" shape="1198.40,513.60 1199.11,507.34" />
    </edge>
    <edge id=":B0_18" function="internal">
        <lane id=":B0_18_0" index="0" speed="4.58" length="15.70" shape="1199.11,507.34 1199.15,506.95 1201.40,502.20 1205.15,499.35 1210.40,498.40" />
    </edge>
    <edge id=":B0_4" function="internal">
        <lane id=":B0_4_0" index="0" speed="4.58" length="9.03" shape="1210.40,508.00 1207.95,508.35 1206.20,509.40 1205.15,511.15 1204.80,513.60" />
    </edge>
    <edge id=":B0_5" function="internal">
        <lane id=":B0_5_0" index="0" speed="5.56" length="20.80" shape="1210.40,508.00 1189.60,508.00" />
        <lane id=":B0_5_1" index="1" speed="5.56" length="20.80" shape="1210.40,504.80 1189.60,504.80" />
        <lane id=":B0_5_2" index="2" speed="5.56" length="20.80" shape="1210.40,501.60 1189.60,501.60" />
    </edge>
    <edge id=":B0_8" function="internal">
        <lane id=":B0_8_0" index="0" speed="4.58" length="4.01" shape="1210.40,501.60 1206.45,500.89" />
    </edge>
    <edge id=":B0_19" function="internal">
        <lane id=":B0_19_0" index="0" speed="4.58" length="17.98" shape="1206.45,500.89 1205.15,500.65 1201.40,497.80 1199.15,493.05 1198.40,486.40" />
    </edge>
    <edge id=":B0_9" function="internal">
        <lane id=":B0_9_0" index="0" speed="4.58" length="9.03" shape="1204.80,486.40 1205.15,488.85 1206.20,490.60 1207.95,491.65 1210.40,492.00" />
    </edge>
    <edge id=":B0_10" function="internal">
        <lane id=":B0_10_0" index="0" speed="3.61" length="27.20" shape="1204.80,486.40 1204.80,513.60" />
        <lane id=":B0_10_1" index="1" speed="3.61" length="27.20" shape="1201.60,486.40 1201.60,513.60" />
    </edge>
    <edge id=":B0_12" function="internal">
        <lane id=":B0_12_0" index="0" speed="4.58" length="6.30" shape="1201.60,486.40 1200.89,492.66" />
    </edge>
    <edge id=":B0_20" function="internal">
        <lane id=":B0_20_0" index="0" speed="4.58" length="15.70" shape="1200.89,492.66 1200.85,493.05 1198.60,497.80 1194.85,500.65 1189.60,501.60" />
    </edge>
    <edge id=":B0_13" function="internal">
        <lane id=":B0_13_0" index="0" speed="4.58" length="9.03" shape="1189.60,492.00 1192.05,491.65 1193.80,490.60 1194.85,488.85 1195.20,486.40" />
    </edge>
    <edge id=":B0_14" function="internal">
        <lane id=":B0_14_0" index="0" speed="5.56" length="20.80" shape="1189.60,492.00 1210.40,492.00" />
        <lane id=":B0_14_1" index="1" speed="5.56" length="20.80" shape="1189.60,495.20 1210.40,495.20" />
        <lane id=":B0_14_2" index="2" speed="5.56" length="20.80" shape="1189.60,498.40 1210.40,498.40" />
    </edge>
    <edge id=":B0_17" function="internal">
        <lane id=":B0_17_0" index="0" speed="4.58" length="4.01" shape="1189.60,498.40 1193.55,499.11" />
    </edge>
    <edge id=":B0_21" function="internal">
        <lane id=":B0_21_0" index="0" speed="4.58" length="17.98" shape="1193.55,499.11 1194.85,499.35 1198.60,502.20 1200.85,506.95 1201.60,513.60" />
    </edge>
    <edge id=":B1_0" function="internal">
        <lane id=":B1_0_0" index="0" speed="4.58" length="9.03" shape="1195.20,1013.60 1194.85,1011.15 1193.80,1009.40 1192.05,1008.35 1189.60,1008.00" />
    </edge>
    <edge id=":B1_1" function="internal">
        <lane id=":B1_1_0" index="0" speed="3.61" length="27.20" shape="1195.20,1013.60 1195.20,986.40" />
        <lane id=":B1_1_1" index="1" speed="3.61" length="27.20" shape="1198.40,1013.60 1198.40,986.40" />
    </edge>
    <edge id=":B1_3" function="internal">
        <lane id=":B1_3_0" index="0" speed="4.58" length="6.30" shape="1198.40,1013.60 1199.11,1007.34" />
    </edge>
    <edge id=":B1_18" function="internal">
        <lane id=":B1_18_0" index="0" speed="4.58" length="15.70" shape="1199.11,1007.34 1199.15,1006.95 1201.40,1002.20 1205.15,999.35 1210.40,998.40" />
    </edge>
    <edge id=":B1_4" function="internal">
        <lane id=":B1_4_0" index="0" speed="4.58" length="9.03" shape="1210.40,1008.00 1207.95,1008.35 1206.20,1009.40 1205.15,1011.15 1204.80,1013.60" />
    </edge>
    <edge id=":B1_5" function="internal">
        <lane id=":B1_5_0" index="0" speed="5.56" length="20.80" shape="1210.40,1008.00 1189.60,1008.00" />
        <lane id=":B1_5_1" index="1" speed="5.56" length="20.80" shape="1210.40,1004.80 1189.60,1004.80" />
        <lane id=":B1_5_2" index="2" speed="5.56" length="20.80" shape="1210.40,1001.60 1189.60,1001.60" />
    </edge>
    <edge id=":B1_8" function="internal">
        <lane id=":B1_8_0" index="0" speed="4.58" length="4.01" shape="1210.40,1001.60 1206.45,1000.89" />
    </edge>
    <edge id=":B1_19" function="internal">
        <lane id=":B1_19_0" index="0" speed="4.58" length="17.98" shape="1206.45,1000.89 1205.15,1000.65 1201.40,997.80 1199.15,993.05 1198.40,986.40" />
    </edge>
    <edge id=":B1_9" function="internal">
        <lane id=":B1_9_0" index="0" speed="4.58" length="9.03" shape="1204.80,986.40 1205.15,988.85 1206.20,990.60 1207.95,991.65 1210.40,992.00" />
    </edge>
    <edge id=":B1_10" function="internal">
        <lane id=":B1_10_0" index="0" speed="3.61" length="27.20" shape="1204.80,986.40 1204.80,1013.60" />
        <lane id=":B1_10_1" index="1" speed="3.61" length="27.20" shape="1201.60,986.40 1201.60,1013.60" />
    </edge>
    <edge id=":B1_12" function="internal">
        <lane id=":B1_12_0" index="0" speed="4.58" length="6.30" shape="1201.60,986.40 1200.89,992.66" />
    </edge>
    <edge id=":B1_20" function="internal">
        <lane id=":B1_20_0" index="0" speed="4.58" length="15.70" shape="1200.89,992.66 1200.85,993.05 1198.60,997.80 1194.85,1000.65 1189.60,1001.60" />
    </edge>
    <edge id=":B1_13" function="internal">
        <lane id=":B1_13_0" index="0" speed="4.58" length="9.03" shape="1189.60,992.00 1192.05,991.65 1193.80,990.60 1194.85,988.85 1195.20,986.40" />
    </edge>
    <edge id=":B1_14" function="internal">
        <lane id=":B1_14_0" index="0" speed="5.56" length="20.80" shape="1189.60,992.00 1210.40,992.00" />
        <lane id=":B1_14_1" index="1" speed="5.56" length="20.80" shape="1189.60,995.20 1210.40,995.20" />
        <lane id=":B1_14_2" index="2" speed="5.56" length="20.80" shape="1189.60,998.40 1210.40,998.40" />
    </edge>
    <edge id=":B1_17" function="internal">
        <lane id=":B1_17_0" index="0" speed="4.58" length="4.01" shape="1189.60,998.40 1193.55,999.11" />
    </edge>
    <edge id=":B1_21" function="internal">
        <lane id=":B1_21_0" index="0" speed="4.58" length="17.98" shape="1193.55,999.11 1194.85,999.35 1198.60,1002.20 1200.85,1006.95 1201.60,1013.60" />
    </edge>
    <edge id=":C0_0" function="internal">
        <lane id=":C0_0_0" index="0" speed="4.58" length="9.03" shape="1895.20,513.60 1894.85,511.15 1893.80,509.40 1892.05,508.35 1889.60,508.00" />
    </edge>
    <edge id=":C0_1" function="internal">
        <lane id=":C0_1_0" index="0" speed="3.61" length="27.20" shape="1895.20,513.60 1895.20,486.40" />
        <lane id=":C0_1_1" index="1" speed="3.61" length="27.20" shape="1898.40,513.60 1898.40,486.40" />
    </edge>
    <edge id=":C0_3" function="internal">
        <lane id=":C0_3_0" index="0" speed="4.58" length="6.30" shape="1898.40,513.60 1899.11,507.34" />
    </edge>
    <edge id=":C0_18" function="internal">
        <lane id=":C0_18_0" index="0" speed="4.58" length="15.70" shape="1899.11,507.34 1899.15,506.95 1901.40,502.20 1905.15,499.35 1910.40,498.40" />
    </edge>
    <edge id=":C0_4" function="internal">
        <lane id=":C0_4_0" index="0" speed="4.58" length="9.03" shape="1910.40,508.00 1907.95,508.35 1906.20,509.40 1905.15,511.15 1904.80,513.60" />
    </edge>
    <edge id=":C0_5" function="internal">
        <lane id=":C0_5_0" index="0" speed="5.56" length="20.80" shape="1910.40,508.00 1889.60,508.00" />
        <lane id=":C0_5_1" index="1" speed="5.56" length="20.80" shape="1910.40,504.80 1889.60,504.80" />
        <lane id=":C0_5_2" index="2" speed="5.56" length="20.80" shape="1910.40,501.60 1889.60,501.60" />
    </edge>
    <edge id=":C0_8" function="internal">
        <lane id=":C0_8_0" index="0" speed="4.58" length="4.01" shape="1910.40,501.60 1906.45,500.89" />
    </edge>
    <edge id=":C0_19" function="internal">
        <lane id=":C0_19_0" index="0" speed="4.58" length="17.98" shape="1906.45,500.89 1905.15,500.65 1901.40,497.80 1899.15,493.05 1898.40,486.40" />
    </edge>
    <edge id=":C0_9" function="internal">
        <lane id=":C0_9_0" index="0" speed="4.58" length="9.03" shape="1904.80,486.40 1905.15,488.85 1906.20,490.60 1907.95,491.65 1910.40,492.00" />
    </edge>
    <edge id=":C0_10" function="internal">
        <lane id=":C0_10_0" index="0" speed="3.61" length="27.20" shape="1904.80,486.40 1904.80,513.60" />
        <lane id=":C0_10_1" index="1" speed="3.61" length="27.20" shape="1901.60,486.40 1901.60,513.60" />
    </edge>
    <edge id=":C0_12" function="internal">
        <lane id=":C0_12_0" index="0" speed="4.58" length="6.30" shape="1901.60,486.40 1900.89,492.66" />
    </edge>
    <edge id=":C0_20" function="internal">
        <lane id=":C0_20_0" index="0" speed="4.58" length="15.70" shape="1900.89,492.66 1900.85,493.05 1898.60,497.80 1894.85,500.65 1889.60,501.60" />
    </edge>
    <edge id=":C0_13" function="internal">
        <lane id=":C0_13_0" index="0" speed="4.58" length="9.03" shape="1889.60,492.00 1892.05,491.65 1893.80,490.60 1894.85,488.85 1895.20,486.40" />
    </edge>
    <edge id=":C0_14" function="internal">
        <lane id=":C0_14_0" index="0" speed="5.56" length="20.80" shape="1889.60,492.00 1910.40,492.00" />
        <lane id=":C0_14_1" index="1" speed="5.56" length="20.80" shape="1889.60,495.20 1910.40,495.20" />
        <lane id=":C0_14_2" index="2" speed="5.56" length="20.80" shape="1889.60,498.40 1910.40,498.40" />
    </edge>
    <edge id=":C0_17" function="internal">
        <lane id=":C0_17_0" index="0" speed="4.58" length="4.01" shape="1889.60,498.40 1893.55,499.11" />
    </edge>
    <edge id=":C0_21" function="internal">
        <lane id=":C0_21_0" index="0" speed="4.58" length="17.98" shape="1893.55,499.11 1894.85,499.35 1898.60,502.20 1900.85,506.95 1901.60,513.60" />
    </edge>
    <edge id=":C1_0" function="internal">
        <lane id=":C1_0_0" index="0" speed="4.58" length="9.03" shape="1895.20,1013.60 1894.85,1011.15 1893.80,1009.40 1892.05,1008.35 1889.60,1008.00" />
    </edge>
    <edge id=":C1_1" function="internal">
        <lane id=":C1_1_0" index="0" speed="3.61" length="27.20" shape="1895.20,1013.60 1895.20,986.40" />
        <lane id=":C1_1_1" index="1" speed="3.61" length="27.20" shape="1898.40,1013.60 1898.40,986.40" />
    </edge>
    <edge id=":C1_3" function="internal">
        <lane id=":C1_3_0" index="0" speed="4.58" length="6.30" shape="1898.40,1013.60 1899.11,1007.34" />
    </edge>
    <edge id=":C1_18" function="internal">
        <lane id=":C1_18_0" index="0" speed="4.58" length="15.70" shape="1899.11,1007.34 1899.15,1006.95 1901.40,1002.20 1905.15,999.35 1910.40,998.40" />
    </edge>
    <edge id=":C1_4" function="internal">
        <lane id=":C1_4_0" index="0" speed="4.58" length="9.03" shape="1910.40,1008.00 1907.95,1008.35 1906.20,1009.40 1905.15,1011.15 1904.80,1013.60" />
    </edge>
    <edge id=":C1_5" function="internal">
        <lane id=":C1_5_0" index="0" speed="5.56" length="20.80" shape="1910.40,1008.00 1889.60,1008.00" />
        <lane id=":C1_5_1" index="1" speed="5.56" length="20.80" shape="1910.40,1004.80 1889.60,1004.80" />
        <lane id=":C1_5_2" index="2" speed="5.56" length="20.80" shape="1910.40,1001.60 1889.60,1001.60" />
    </edge>
    <edge id=":C1_8" function="internal">
        <lane id=":C1_8_0" index="0" speed="4.58" length="4.01" shape="1910.40,1001.60 1906.45,1000.89" />
    </edge>
    <edge id=":C1_19" function="internal">
        <lane id=":C1_19_0" index="0" speed="4.58" length="17.98" shape="1906.45,1000.89 1905.15,1000.65 1901.40,997.80 1899.15,993.05 1898.40,986.40" />
    </edge>
    <edge id=":C1_9" function="internal">
        <lane id=":C1_9_0" index="0" speed="4.58" length="9.03" shape="1904.80,986.40 1905.15,988.85 1906.20,990.60 1907.95,991.65 1910.40,992.00" />
    </edge>
    <edge id=":C1_10" function="internal">
        <lane id=":C1_10_0" index="0" speed="3.61" length="27.20" shape="1904.80,986.40 1904.80,1013.60" />
        <lane id=":C1_10_1" index="1" speed="3.61" length="27.20" shape="1901.60,986.40 1901.60,1013.60" />
    </edge>
    <edge id=":C1_12" function="internal">
        <lane id=":C1_12_0" index="0" speed="4.58" length="6.30" shape="1901.60,986.40 1900.89,992.66" />
    </edge>
    <edge id=":C1_20" function="internal">
        <lane id=":C1_20_0" index="0" speed="4.58" length="15.70" shape="1900.89,992.66 1900.85,993.05 1898.60,997.80 1894.85,1000.65 1889.60,1001.60" />
    </edge>
    <edge id=":C1_13" function="internal">
        <lane id=":C1_13_0" index="0" speed="4.58" length="9.03" shape="1889.60,992.00 1892.05,991.65 1893.80,990.60 1894.85,988.85 1895.20,986.40" />
    </edge>
    <edge id=":C1_14" function="internal">
        <lane id=":C1_14_0" index="0" speed="5.56" length="20.80" shape="1889.60,992.00 1910.40,992.00" />
        <lane id=":C1_14_1" index="1" speed="5.56" length="20.80" shape="1889.60,995.20 1910.40,995.20" />
        <lane id=":C1_14_2" index="2" speed="5.56" length="20.80" shape="1889.60,998.40 1910.40,998.40" />
    </edge>
    <edge id=":C1_17" function="internal">
        <lane id=":C1_17_0" index="0" speed="4.58" length="4.01" shape="1889.60,998.40 1893.55,999.11" />
    </edge>
    <edge id=":C1_21" function="internal">
        <lane id=":C1_21_0" index="0" speed="4.58" length="17.98" shape="1893.55,999.11 1894.85,999.35 1898.60,1002.20 1900.85,1006.95 1901.60,1013.60" />
    </edge>

    <edge id="A0A1" from="A0" to="A1" priority="-1" type="cross">
        <lane id="A0A1_0" index="0" speed="3.61" length="472.80" shape="504.80,513.60 504.80,986.40" />
        <lane id="A0A1_1" index="1" speed="3.61" length="472.80" shape="501.60,513.60 501.60,986.40" />
    </edge>
    <edge id="A0B0" from="A0" to="B0" priority="-1" type="arterial">
        <lane id="A0B0_0" index="0" speed="5.56" length="679.20" shape="510.40,492.00 1189.60,492.00" />
        <lane id="A0B0_1" index="1" speed="5.56" length="679.20" shape="510.40,495.20 1189.60,495.20" />
        <lane id="A0B0_2" index="2" speed="5.56" length="679.20" shape="510.40,498.40 1189.60,498.40" />
    </edge>
    <edge id="A0bottom0" from="A0" to="bottom0" priority="-1" type="cross">
        <lane id="A0bottom0_0" index="0" speed="3.61" length="486.40" shape="495.20,486.40 495.20,0.00" />
        <lane id="A0bottom0_1" index="1" speed="3.61" length="486.40" shape="498.40,486.40 498.40,0.00" />
    </edge>
    <edge id="A0left0" from="A0" to="left0" priority="-1" type="arterial">
        <lane id="A0left0_0" index="0" speed="5.56" length="489.60" shape="489.60,508.00 0.00,508.00" />
        <lane id="A0left0_1" index="1" speed="5.56" length="489.60" shape="489.60,504.80 0.00,504.80" />
        <lane id="A0left0_2" index="2" speed="5.56" length="489.60" shape="489.60,501.60 0.00,501.60" />
    </edge>
    <edge id="A1A0" from="A1" to="A0" priority="-1" type="cross">
        <lane id="A1A0_0" index="0" speed="3.61" length="472.80" shape="495.20,986.40 495.20,513.60" />
        <lane id="A1A0_1" index="1" speed="3.61" length="472.80" shape="498.40,986.40 498.40,513.60" />
    </edge>
    <edge id="A1B1" from="A1" to="B1" priority="-1" type="arterial">
        <lane id="A1B1_0" index="0" speed="5.56" length="679.20" shape="510.40,992.00 1189.60,992.00" />
        <lane id="A1B1_1" index="1" speed="5.56" length="679.20" shape="510.40,995.20 1189.60,995.20" />
        <lane id="A1B1_2" index="2" speed="5.56" length="679.20" shape="510.40,998.40 1189.60,998.40" />
    </edge>
    <edge id="A1left1" from="A1" to="left1" priority="-1" type="arterial">
        <lane id="A1left1_0" index="0" speed="5.56" length="489.60" shape="489.60,1008.00 0.00,1008.00" />
        <lane id="A1left1_1" index="1" speed="5.56" length="489.60" shape="489.60,1004.80 0.00,1004.80" />
        <lane id="A1left1_2" index="2" speed="5.56" length="489.60" shape="489.60,1001.60 0.00,1001.60" />
    </edge>
    <edge id="A1top0" from="A1" to="top0" priority="-1" type="cross">
        <lane id="A1top0_0" index="0" speed="3.61" length="486.40" shape="504.80,1013.60 504.80,1500.00" />
        <lane id="A1top0_1" index="1" speed="3.61" length="486.40" shape="501.60,1013.60 501.60,1500.00" />
    </edge>
    <edge id="B0A0" from="B0" to="A0" priority="-1" type="arterial">
        <lane id="B0A0_0" index="0" speed="5.56" length="679.20" shape="1189.60,508.00 510.40,508.00" />
        <lane id="B0A0_1" index="1" speed="5.56" length="679.20" shape="1189.60,504.80 510.40,504.80" />
        <lane id="B0A0_2" index="2" speed="5.56" length="679.20" shape="1189.60,501.60 510.40,501.60" />
    </edge>
    <edge id="B0B1" from="B0" to="B1" priority="-1" type="cross">
        <lane id="B0B1_0" index="0" speed="3.61" length="472.80" shape="1204.80,513.60 1204.80,986.40" />
        <lane id="B0B1_1" index="1" speed="3.61" length="472.80" shape="1201.60,513.60 1201.60,986.40" />
    </edge>
    <edge id="B0C0" from="B0" to="C0" priority="-1" type="arterial">
        <lane id="B0C0_0" index="0" speed="5.56" length="679.20" shape="1210.40,492.00 1889.60,492.00" />
        <lane id="B0C0_1" index="1" speed="5.56" length="679.20" shape="1210.40,495.20 1889.60,495.20" />
        <lane id="B0C0_2" index="2" speed="5.56" length="679.20" shape="1210.40,498.40 1889.60,498.40" />
    </edge>
    <edge id="B0bottom1" from="B0" to="bottom1" priority="-1" type="cross">
        <lane id="B0bottom1_0" index="0" speed="3.61" length="486.40" shape="1195.20,486.40 1195.20,0.00" />
        <lane id="B0bottom1_1" index="1" speed="3.61" length="486.40" shape="1198.40,486.40 1198.40,0.00" />
    </edge>
    <edge id="B1A1" from="B1" to="A1" priority="-1" type="arterial">
        <lane id="B1A1_0" index="0" speed="5.56" length="679.20" shape="1189.60,1008.00 510.40,1008.00" />
        <lane id="B1A1_1" index="1" speed="5.56" length="679.20" shape="1189.60,1004.80 510.40,1004.80" />
        <lane id="B1A1_2" index="2" speed="5.56" length="679.20" shape="1189.60,1001.60 510.40,1001.60" />
    </edge>
    <edge id="B1B0" from="B1" to="B0" priority="-1" type="cross">
        <lane id="B1B0_0" index="0" speed="3.61" length="472.80" shape="1195.20,986.40 1195.20,513.60" />
        <lane id="B1B0_1" index="1" speed="3.61" length="472.80" shape="1198.40,986.40 1198.40,513.60" />
    </edge>
    <edge id="B1C1" from="B1" to="C1" priority="-1" type="arterial">
        <lane id="B1C1_0" index="0" speed="5.56" length="679.20" shape="1210.40,992.00 1889.60,992.00" />
        <lane id="B1C1_1" index="1" speed="5.56" length="679.20" shape="1210.40,995.20 1889.60,995.20" />
        <lane id="B1C1_2" index="2" speed="5.56" length="679.20" shape="1210.40,998.40 1889.60,998.40" />
    </edge>
    <edge id="B1top1" from="B1" to="top1" priority="-1" type="cross">
        <lane id="B1top1_0" index="0" speed="3.61" length="486.40" shape="1204.80,1013.60 1204.80,1500.00" />
        <lane id="B1top1_1" index="1" speed="3.61" length="486.40" shape="1201.60,1013.60 1201.60,1500.00" />
    </edge>
    <edge id="C0B0" from="C0" to="B0" priority="-1" type="arterial">
        <lane id="C0B0_0" index="0" speed="5.56" length="679.20" shape="1889.60,508.00 1210.40,508.00" />
        <lane id="C0B0_1" index="1" speed="5.56" length="679.20" shape="1889.60,504.80 1210.40,504.80" />
        <lane id="C0B0_2" index="2" speed="5.56" length="679.20" shape="1889.60,501.60 1210.40,501.60" />
    </edge>
    <edge id="C0C1" from="C0" to="C1" priority="-1" type="cross">
        <lane id="C0C1_0" index="0" speed="3.61" length="472.80" shape="1904.80,513.60 1904.80,986.40" />
        <lane id="C0C1_1" index="1" speed="3.61" length="472.80" shape="1901.60,513.60 1901.60,986.40" />
    </edge>
    <edge id="C0bottom2" from="C0" to="bottom2" priority="-1" type="cross">
        <lane id="C0bottom2_0" index="0" speed="3.61" length="486.40" shape="1895.20,486.40 1895.20,0.00" />
        <lane id="C0bottom2_1" index="1" speed="3.61" length="486.40" shape="1898.40,486.40 1898.40,0.00" />
    </edge>
    <edge id="C0right0" from="C0" to="right0" priority="-1" type="arterial">
        <lane id="C0right0_0" index="0" speed="5.56" length="489.60" shape="1910.40,492.00 2400.00,492.00" />
        <lane id="C0right0_1" index="1" speed="5.56" length="489.60" shape="1910.40,495.20 2400.00,495.20" />
        <lane id="C0right0_2" index="2" speed="5.56" length="489.60" shape="1910.40,498.40 2400.00,498.40" />
    </edge>
    <edge id="C1B1" from="C1" to="B1" priority="-1" type="arterial">
        <lane id="C1B1_0" index="0" speed="5.56" length="679.20" shape="1889.60,1008.00 1210.40,1008.00" />
        <lane id="C1B1_1" index="1" speed="5.56" length="679.20" shape="1889.60,1004.80 1210.40,1004.80" />
        <lane id="C1B1_2" index="2" speed="5.56" length="679.20" shape="1889.60,1001.60 1210.40,1001.60" />
    </edge>
    <edge id="C1C0" from="C1" to="C0" priority="-1" type="cross">
        <lane id="C1C0_0" index="0" speed="3.61" length="472.80" shape="1895.20,986.40 1895.20,513.60" />
        <lane id="C1C0_1" index="1" speed="3.61" length="472.80" shape="1898.40,986.40 1898.40,513.60" />
    </edge>
    <edge id="C1right1" from="C1" to="right1" priority="-1" type="arterial">
        <lane id="C1right1_0" index="0" speed="5.56" length="489.60" shape="1910.40,992.00 2400.00,992.00" />
        <lane id="C1right1_1" index="1" speed="5.56" length="489.60" shape="1910.40,995.20 2400.00,995.20" />
        <lane id="C1right1_2" index="2" speed="5.56" length="489.60" shape="1910.40,998.40 2400.00,998.40" />
    </edge>