<?xml version="1.0" encoding="UTF-8"?>
<!-- Demand profile: balanced | 5500 vehicles over 3600s -->
<routes>
    <vType id="car" accel="1.3" decel="2.25" sigma="0.5" length="5" minGap="2.5" maxSpeed="5.56"/>
    <route id="S_turn_W_C" edges="bottom2C0 C0B0 B0A0 A0left0"/>
    <route id="EB1_full" edges="left1A1 A1B1 B1C1 C1right1"/>
    <route id="N_turn_E_A" edges="top0A1 A1B1 B1C1 C1right1"/>
    <route id="NB_A" edges="bottom0A0 A0A1 A1top0"/>
    <route id="SB_B" edges="top1B1 B1B0 B0bottom1"/>
    <route id="N_turn_W_C" edges="top2C1 C1B1 B1A1 A1left1"/>
    <route id="EB0_full" edges="left0A0 A0B0 B0C0 C0right0"/>
    <route id="NB_C" edges="bottom2C0 C0C1 C1top2"/>
    <route id="WB0_half" edges="C0B0 B0A0 A0left0"/>
    <route id="EB1_half" edges="left1A1 A1B1"/>
    <route id="WB0_full" edges="right0C0 C0B0 B0A0 A0left0"/>
    <route id="NB_B" edges="bottom1B0 B0B1 B1top1"/>
    <route id="E_turn_N_B" edges="right0C0 C0B0 B0B1 B1top1"/>
    <route id="WB1_full" edges="right1C1 C1B1 B1A1 A1left1"/>
    <route id="W_turn_N_B" edges="left0A0 A0B0 B0B1 B1top1"/>
    <route id="SB_A" edges="top0A1 A1A0 A0bottom0"/>
    <route id="WB1_half" edges="C1B1 B1A1 A1left1"/>
    <route id="SB_C" edges="top2C1 C1C0 C0bottom2"/>
    <route id="S_turn_E_A" edges="bottom0A0 A0B0 B0C0 C0right0"/>
    <route id="EB0_half" edges="left0A0 A0B0"/>

    <vehicle id="v_0" type="car" route="S_turn_W_C" depart="0.0" departLane="best" departSpeed="max"/>
    <vehicle id="v_1" type="car" route="EB1_full" depart="0.7" departLane="best" departSpeed="max"/>
    <vehicle id="v_2" type="car" route="N_turn_E_A" depart="1.3" departLane="best" departSpeed="max"/>
    <vehicle id="v_3" type="car" route="NB_A" depart="2.0" departLane="best" departSpeed="max"/>
    <vehicle id="v_4" type="car" route="SB_B" depart="2.6" departLane="best" departSpeed="max"/>
    <vehicle id="v_5" type="car" route="N_turn_W_C" depart="3.3" departLane="best" departSpeed="max"/>
    <vehicle id="v_6" type="car" route="EB0_full" depart="3.9" departLane="best" departSpeed="max"/>
    <vehicle id="v_7" type="car" route="N_turn_E_A" depart="4.6" departLane="best" departSpeed="max"/>
    <vehicle id="v_8" type="car" route="EB1_full" depart="5.2" departLane="best" departSpeed="max"/>
    <vehicle id="v_9" type="car" route="NB_C" depart="5.9" departLane="best" departSpeed="max"/>
    <vehicle id="v_10" type="car" route="EB1_full" depart="6.5" departLane="best" departSpeed="max"/>
    <vehicle id="v_11" type="car" route="WB0_half" depart="7.2" departLane="best" departSpeed="max"/>
    <vehicle id="v_12" type="car" route="EB1_half" depart="7.9" departLane="best" departSpeed="max"/>
    <vehicle id="v_13" type="car" route="WB0_half" depart="8.5" departLane="best" departSpeed="max"/>
    <vehicle id="v_14" type="car" route="WB0_full" depart="9.2" departLane="best" departSpeed="max"/>
    <vehicle id="v_15" type="car" route="NB_B" depart="9.8" departLane="best" departSpeed="max"/>
    <vehicle id="v_16" type="car" route="EB1_half" depart="10.5" departLane="best" departSpeed="max"/>
    <vehicle id="v_17" type="car" route="N_turn_W_C" depart="11.1" departLane="best" departSpeed="max"/>
    <vehicle id="v_18" type="car" route="E_turn_N_B" depart="11.8" departLane="best" departSpeed="max"/>
    <vehicle id="v_19" type="car" route="NB_C" depart="12.4" departLane="best" departSpeed="max"/>
    <vehicle id="v_20" type="car" route="N_turn_W_C" depart="13.1" departLane="best" departSpeed="max"/>
    <vehicle id="v_21" type="car" route="NB_A" depart="13.7" departLane="best" departSpeed="max"/>
    <vehicle id="v_22" type="car" route="WB1_full" depart="14.4" departLane="best" departSpeed="max"/>
    <vehicle id="v_23" type="car" route="N_turn_E_A" depart="15.1" departLane="best" departSpeed="max"/>
    <vehicle id="v_24" type="car" route="NB_B" depart="15.7" departLane="best" departSpeed="max"/>
    <vehicle id="v_25" type="car" route="EB0_full" depart="16.4" departLane="best" departSpeed="max"/>
    <vehicle id="v_26" type="car" route="EB1_full" depart="17.0" departLane="best" departSpeed="max"/>
    <vehicle id="v_27" type="car" route="WB0_full" depart="17.7" departLane="best" departSpeed="max"/>
    <vehicle id="v_28" type="car" route="N_turn_W_C" depart="18.3" departLane="best" departSpeed="max"/>
    <vehicle id="v_29" type="car" route="W_turn_N_B" depart="19.0" departLane="best" departSpeed="max"/>
    <vehicle id="v_30" type="car" route="NB_A" depart="19.6" departLane="best" departSpeed="max"/>
    <vehicle id="v_31" type="car" route="N_turn_E_A" depart="20.3" departLane="best" departSpeed="max"/>
    <vehicle id="v_32" type="car" route="EB1_half" depart="20.9" departLane="best" departSpeed="max"/>
    <vehicle id="v_33" type="car" route="EB1_half" depart="21.6" departLane="best" departSpeed="max"/>
    <vehicle id="v_34" type="car" route="SB_A" depart="22.3" departLane="best" departSpeed="max"/>
    <vehicle id="v_35" type="car" route="SB_B" depart="22.9" departLane="best" departSpeed="max"/>
    <vehicle id="v_36" type="car" route="W_turn_N_B" depart="23.6" departLane="best" departSpeed="max"/>
    <vehicle id="v_37" type="car" route="SB_B" depart="24.2" departLane="best" departSpeed="max"/>
    <vehicle id="v_38" type="car" route="S_turn_W_C" depart="24.9" departLane="best" departSpeed="max"/>
    <vehicle id="v_39" type="car" route="N_turn_E_A" depart="25.5" departLane="best" departSpeed="max"/>
    <vehicle id="v_40" type="car" route="NB_C" depart="26.2" departLane="best" departSpeed="max"/>
    <vehicle id="v_41" type="car" route="EB0_full" depart="26.8" departLane="best" departSpeed="max"/>
    <vehicle id="v_42" type="car" route="W_turn_N_B" depart="27.5" departLane="best" departSpeed="max"/>
    <vehicle id="v_43" type="car" route="NB_C" depart="28.1" departLane="best" departSpeed="max"/>
    <vehicle id="v_44" type="car" route="NB_A" depart="28.8" departLane="best" departSpeed="max"/>
    <vehicle id="v_45" type="car" route="WB0_full" depart="29.5" departLane="best" departSpeed="max"/>
    <vehicle id="v_46" type="car" route="WB1_half" depart="30.1" departLane="best" departSpeed="max"/>
    <vehicle id="v_47" type="car" route="SB_B" depart="30.8" departLane="best" departSpeed="max"/>
    <vehicle id="v_48" type="car" route="SB_B" depart="31.4" departLane="best" departSpeed="max"/>
    <vehicle id="v_49" type="car" route="SB_C" depart="32.1" departLane="best" departSpeed="max"/>
    <vehicle id="v_50" type="car" route="NB_A" depart="32.7" departLane="best" departSpeed="max"/>
    <vehicle id="v_51" type="car" route="NB_A" depart="33.4" departLane="best" departSpeed="max"/>
    <vehicle id="v_52" type="car" route="EB1_full" depart="34.0" departLane="best" departSpeed="max"/>
    <vehicle id="v_53" type="car" route="WB0_half" depart="34.7" departLane="best" departSpeed="max"/>
    <vehicle id="v_54" type="car" route="N_turn_E_A" depart="35.3" departLane="best" departSpeed="max"/>
    <vehicle id="v_55" type="car" route="E_turn_N_B" depart="36.0" departLane="best" departSpeed="max"/>
    <vehicle id="v_56" type="car" route="NB_A" depart="36.7" departLane="best" departSpeed="max"/>
    <vehicle id="v_57" type="car" route="WB1_full" depart="37.3" departLane="best" departSpeed="max"/>
    <vehicle id="v_58" type="car" route="SB_B" depart="38.0" departLane="best" departSpeed="max"/>
    <vehicle id="v_59" type="car" route="NB_B" depart="38.6" departLane="best" departSpeed="max"/>
    <vehicle id="v_60" type="car" route="NB_B" depart="39.3" departLane="best" departSpeed="max"/>
    <vehicle id="v_61" type="car" route="N_turn_W_C" depart="39.9" departLane="best" departSpeed="max"/>
    <vehicle id="v_62" type="car" route="NB_B" depart="40.6" departLane="best" departSpeed="max"/>
    <vehicle id="v_63" type="car" route="W_turn_N_B" depart="41.2" departLane="best" departSpeed="max"/>
    <vehicle id="v_64" type="car" route="NB_B" depart="41.9" departLane="best" departSpeed="max"/>
    <vehicle id="v_65" type="car" route="NB_A" depart="42.5" departLane="best" departSpeed="max"/>
    <vehicle id="v_66" type="car" route="S_turn_E_A" depart="43.2" departLane="best" departSpeed="max"/>
    <vehicle id="v_67" type="car" route="WB0_half" depart="43.9" departLane="best" departSpeed="max"/>
    <vehicle id="v_68" type="car" route="N_turn_E_A" depart="44.5" departLane="best" departSpeed="max"/>
    <vehicle id="v_69" type="car" route="WB1_half" depart="45.2" departLane="best" departSpeed="max"/>
    <vehicle id="v_70" type="car" route="SB_C" depart="45.8" departLane="best" departSpeed="max"/>
    <vehicle id="v_71" type="car" route="NB_B" depart="46.5" departLane="best" departSpeed="max"/>
    <vehicle id="v_72" type="car" route="W_turn_N_B" depart="47.1" departLane="best" departSpeed="max"/>
    <vehicle id="v_73" type="car" route="N_turn_E_A" depart="47.8" departLane="best" departSpeed="max"/>
    <vehicle id="v_74" type="car" route="WB1_full" depart="48.4" departLane="best" departSpeed="max"/>
    <vehicle id="v_75" type="car" route="N_turn_E_A" depart="49.1" departLane="best" departSpeed="max"/>
    <vehicle id="v_76" type="car" route="SB_C" depart="49.7" departLane="best" departSpeed="max"/>
    <vehicle id="v_77" type="car" route="EB1_half" depart="50.4" departLane="best" departSpeed="max"/>
    <vehicle id="v_78" type="car" route="N_turn_E_A" depart="51.1" departLane="best" departSpeed="max"/>
    <vehicle id="v_79" type="car" route="WB1_full" depart="51.7" departLane="best" departSpeed="max"/>
    <vehicle id="v_80" type="car" route="SB_C" depart="52.4" departLane="best" departSpeed="max"/>
    <vehicle id="v_81" type="car" route="EB1_full" depart="53.0" departLane="best" departSpeed="max"/>
    <vehicle id="v_82" type="car" route="EB1_full" depart="53.7" departLane="best" departSpeed="max"/>
    <vehicle id="v_83" type="car" route="SB_C" depart="54.3" departLane="best" departSpeed="max"/>
    <vehicle id="v_84" type="car" route="NB_B" depart="55.0" departLane="best" departSpeed="max"/>
    <vehicle id="v_85" type="car" route="NB_A" depart="55.6" departLane="best" departSpeed="max"/>
    <vehicle id="v_86" type="car" route="WB1_half" depart="56.3" departLane="best" departSpeed="max"/>
    <vehicle id="v_87" type="car" route="EB1_full" depart="56.9" departLane="best" departSpeed="max"/>
    <vehicle id="v_88" type="car" route="WB1_full" depart="57.6" departLane="best" departSpeed="max"/>
    <vehicle id="v_89" type="car" route="NB_B" depart="58.3" departLane="best" departSpeed="max"/>
    <vehicle id="v_90" type="car" route="NB_A" depart="58.9" departLane="best" departSpeed="max"/>
    <vehicle id="v_91" type="car" route="N_turn_W_C" depart="59.6" departLane="best" departSpeed="max"/>
    <vehicle id="v_92" type="car" route="SB_B" depart="60.2" departLane="best" departSpeed="max"/>
    <vehicle id="v_93" type="car" route="WB0_full" depart="60.9" departLane="best" departSpeed="max"/>
    <vehicle id="v_94" type="car" route="SB_C" depart="61.5" departLane="best" departSpeed="max"/>
    <vehicle id="v_95" type="car" route="W_turn_N_B" depart="62.2" departLane="best" departSpeed="max"/>
    <vehicle id="v_96" type="car" route="SB_C" depart="62.8" departLane="best" departSpeed="max"/>
    <vehicle id="v_97" type="car" route="WB0_half" depart="63.5" departLane="best" departSpeed="max"/>
    <vehicle id="v_98" type="car" route="N_turn_E_A" depart="64.1" departLane="best" departSpeed="max"/>
    <vehicle id="v_99" type="car" route="N_turn_W_C" depart="64.8" departLane="best" departSpeed="max"/>
    <vehicle id="v_100" type="car" route="WB0_half" depart="65.5" departLane="best" departSpeed="max"/>
    <vehicle id="v_101" type="car" route="EB0_half" depart="66.1" departLane="best" departSpeed="max"/>
    <vehicle id="v_102" type="car" route="EB0_half" depart="66.8" departLane="best" departSpeed="max"/>
    <vehicle id="v_103" type="car" route="NB_C" depart="67.4" departLane="best" departSpeed="max"/>
    <vehicle id="v_104" type="car" route="WB0_half" depart="68.1" departLane="best" departSpeed="max"/>
    <vehicle id="v_105" type="car" route="NB_C" depart="68.7" departLane="best" departSpeed="max"/>
    <vehicle id="v_106" type="car" route="WB0_half" depart="69.4" departLane="best" departSpeed="max"/>
    <vehicle id="v_107" type="car" route="WB1_full" depart="70.0" departLane="best" departSpeed="max"/>
    <vehicle id="v_108" type="car" route="NB_B" depart="70.7" departLane="best" departSpeed="max"/>
    <vehicle id="v_109" type="car" route="SB_B" depart="71.3" departLane="best" departSpeed="max"/>
    <vehicle id="v_110" type="car" route="NB_B" depart="72.0" departLane="best" departSpeed="max"/>
    <vehicle id="v_111" type="car" route="EB0_half" depart="72.7" departLane="best" departSpeed="max"/>
    <vehicle id="v_112" type="car" route="NB_C" depart="73.3" departLane="best" departSpeed="max"/>
    <vehicle id="v_113" type="car" route="NB_C" depart="74.0" departLane="best" departSpeed="max"/>
    <vehicle id="v_114" type="car" route="E_turn_N_B" depart="74.6" departLane="best" departSpeed="max"/>
    <vehicle id="v_115" type="car" route="WB0_half" depart="75.3" departLane="best" departSpeed="max"/>
    <vehicle id="v_116" type="car" route="EB1_full" depart="75.9" departLane="best" departSpeed="max"/>
    <vehicle id="v_117" type="car" route="WB1_full" depart="76.6" departLane="best" departSpeed="max"/>
    <vehicle id="v_118" type="car" route="EB1_full" depart="77.2" departLane="best" departSpeed="max"/>
    <vehicle id="v_119" type="car" route="SB_B" depart="77.9" departLane="best" departSpeed="max"/>
    <vehicle id="v_120" type="car" route="EB1_half" depart="78.5" departLane="best" departSpeed="max"/>
    <vehicle id="v_121" type="car" route="NB_C" depart="79.2" departLane="best" departSpeed="max"/>
    <vehicle id="v_122" type="car" route="S_turn_E_A" depart="79.9" departLane="best" departSpeed="max"/>
    <vehicle id="v_123" type="car" route="E_turn_N_B" depart="80.5" departLane="best" departSpeed="max"/>
    <vehicle id="v_124" type="car" route="WB1_half" depart="81.2" departLane="best" departSpeed="max"/>
    <vehicle id="v_125" type="car" route="N_turn_W_C" depart="81.8" departLane="best" departSpeed="max"/>
    <vehicle id="v_126" type="car" route="EB1_half" depart="82.5" departLane="best" departSpeed="max"/>
    <vehicle id="v_127" type="car" route="EB0_full" depart="83.1" departLane="best" departSpeed="max"/>
    <vehicle id="v_128" type="car" route="EB0_full" depart="83.8" departLane="best" departSpeed="max"/>
    <vehicle id="v_129" type="car" route="SB_B" depart="84.4" departLane="best" departSpeed="max"/>
    <vehicle id="v_130" type="car" route="SB_A" depart="85.1" departLane="best" departSpeed="max"/>
    <vehicle id="v_131" type="car" route="S_turn_W_C" depart="85.7" departLane="best" departSpeed="max"/>
    <vehicle id="v_132" type="car" route="N_turn_W_C" depart="86.4" departLane="best" departSpeed="max"/>
    <vehicle id="v_133" type="car" route="WB1_half" depart="87.1" departLane="best" departSpeed="max"/>
    <vehicle id="v_134" type="car" route="SB_C" depart="87.7" departLane="best" departSpeed="max"/>
    <vehicle id="v_135" type="car" route="N_turn_W_C" depart="88.4" departLane="best" departSpeed="max"/>
    <vehicle id="v_136" type="car" route="EB0_half" depart="89.0" departLane="best" departSpeed="max"/>
    <vehicle id="v_137" type="car" route="EB1_full" depart="89.7" departLane="best" departSpeed="max"/>
    <vehicle id="v_138" type="car" route="WB1_full" depart="90.3" departLane="best" departSpeed="max"/>
    <vehicle id="v_139" type="car" route="SB_A" depart="91.0" departLane="best" departSpeed="max"/>
    <vehicle id="v_140" type="car" route="NB_B" depart="91.6" departLane="best" departSpeed="max"/>
    <vehicle id="v_141" type="car" route="SB_C" depart="92.3" departLane="best" departSpeed="max"/>
    <vehicle id="v_142" type="car" route="N_turn_W_C" depart="92.9" departLane="best" departSpeed="max"/>
    <vehicle id="v_143" type="car" route="SB_B" depart="93.6" departLane="best" departSpeed="max"/>
    <vehicle id="v_144" type="car" route="NB_A" depart="94.3" departLane="best" departSpeed="max"/>
    <vehicle id="v_145" type="car" route="WB0_full" depart="94.9" departLane="best" departSpeed="max"/>
    <vehicle id="v_146" type="car" route="WB0_full" depart="95.6" departLane="best" departSpeed="max"/>
    <vehicle id="v_147" type="car" route="WB0_half" depart="96.2" departLane="best" departSpeed="max"/>
    <vehicle id="v_148" type="car" route="WB1_full" depart="96.9" departLane="best" departSpeed="max"/>
    <vehicle id="v_149" type="car" route="NB_B" depart="97.5" departLane="best" departSpeed="max"/>
    <vehicle id="v_150" type="car" route="SB_A" depart="98.2" departLane="best" departSpeed="max"/>
    <vehicle id="v_151" type="car" route="S_turn_E_A" depart="98.8" departLane="best" departSpeed="max"/>
    <vehicle id="v_152" type="car" route="EB1_full" depart="99.5" departLane="best" departSpeed="max"/>
    <vehicle id="v_153" type="car" route="S_turn_E_A" depart="100.1" departLane="best" departSpeed="max"/>
    <vehicle id="v_154" type="car" route="EB0_full" depart="100.8" departLane="best" departSpeed="max"/>
    <vehicle id="v_155" type="car" route="SB_C" depart="101.5" departLane="best" departSpeed="max"/>
    <vehicle id="v_156" type="car" route="EB0_half" depart="102.1" departLane="best" departSpeed="max"/>
    <vehicle id="v_157" type="car" route="NB_C" depart="102.8" departLane="best" departSpeed="max"/>
    <vehicle id="v_158" type="car" route="EB0_full" depart="103.4" departLane="best" departSpeed="max"/>
    <vehicle id="v_159" type="car" route="S_turn_E_A" depart="104.1" departLane="best" departSpeed="max"/>
    <vehicle id="v_160" type="car" route="NB_A" depart="104.7" departLane="best" departSpeed="max"/>
    <vehicle id="v_161" type="car" route="N_turn_W_C" depart="105.4" departLane="best" departSpeed="max"/>
    <vehicle id="v_162" type="car" route="NB_C" depart="106.0" departLane="best" departSpeed="max"/>
    <vehicle id="v_163" type="car" route="EB1_half" depart="106.7" departLane="best" departSpeed="max"/>
    <vehicle id="v_164" type="car" route="EB1_full" depart="107.3" departLane="best" departSpeed="max"/>
    <vehicle id="v_165" type="car" route="N_turn_W_C" depart="108.0" departLane="best" departSpeed="max"/>
    <vehicle id="v_166" type="car" route="SB_C" depart="108.7" departLane="best" departSpeed="max"/>
    <vehicle id="v_167" type="car" route="NB_B" depart="109.3" departLane="best" departSpeed="max"/>
    <vehicle id="v_168" type="car" route="EB0_half" depart="110.0" departLane="best" departSpeed="max"/>
    <vehicle id="v_169" type="car" route="WB0_full" depart="110.6" departLane="best" departSpeed="max"/>
    <vehicle id="v_170" type="car" route="NB_C" depart="111.3" departLane="best" departSpeed="max"/>
    <vehicle id="v_171" type="car" route="WB0_full" depart="111.9" departLane="best" departSpeed="max"/>
    <vehicle id="v_172" type="car" route="NB_C" depart="112.6" departLane="best" departSpeed="max"/>
    <vehicle id="v_173" type="car" route="EB1_half" depart="113.2" departLane="best" departSpeed="max"/>
    <vehicle id="v_174" type="car" route="EB0_half" depart="113.9" departLane="best" departSpeed="max"/>
    <vehicle id="v_175" type="car" route="NB_C" depart="114.5" departLane="best" departSpeed="max"/>
    <vehicle id="v_176" type="car" route="WB0_half" depart="115.2" departLane="best" departSpeed="max"/>
    <vehicle id="v_177" type="car" route="EB0_full" depart="115.9" departLane="best" departSpeed="max"/>
    <vehicle id="v_178" type="car" route="SB_C" depart="116.5" departLane="best" departSpeed="max"/>
    <vehicle id="v_179" type="car" route="EB0_half" depart="117.2" departLane="best" departSpeed="max"/>
    <vehicle id="v_180" type="car" route="NB_C" depart="117.8" departLane="best" departSpeed="max"/>
    <vehicle id="v_181" type="car" route="W_turn_N_B" depart="118.5" departLane="best" departSpeed="max"/>
    <vehicle id="v_182" type="car" route="SB_A" depart="119.1" departLane="best" departSpeed="max"/>
    <vehicle id="v_183" type="car" route="SB_A" depart="119.8" departLane="best" departSpeed="max"/>
    <vehicle id="v_184" type="car" route="SB_B" depart="120.4" departLane="best" departSpeed="max"/>
    <vehicle id="v_185" type="car" route="NB_A" depart="121.1" departLane="best" departSpeed="max"/>
    <vehicle id="v_186" type="car" route="NB_B" depart="121.7" departLane="best" departSpeed="max"/>
    <vehicle id="v_187" type="car" route="SB_B" depart="122.4" departLane="best" departSpeed="max"/>
    <vehicle id="v_188" type="car" route="S_turn_W_C" depart="123.1" departLane="best" departSpeed="max"/>
    <vehicle id="v_189" type="car" route="W_turn_N_B" depart="123.7" departLane="best" departSpeed="max"/>
    <vehicle id="v_190" type="car" route="WB0_half" depart="124.4" departLane="best" departSpeed="max"/>
    <vehicle id="v_191" type="car" route="NB_C" depart="125.0" departLane="best" departSpeed="max"/>
    <vehicle id="v_192" type="car" route="N_turn_E_A" depart="125.7" departLane="best" departSpeed="max"/>
    <vehicle id="v_193" type="car" route="SB_B" depart="126.3" departLane="best" departSpeed="max"/>
    <vehicle id="v_194" type="car" route="E_turn_N_B" depart="127.0" departLane="best" departSpeed="max"/>
    <vehicle id="v_195" type="car" route="SB_C" depart="127.6" departLane="best" departSpeed="max"/>
    <vehicle id="v_196" type="car" route="NB_C" depart="128.3" departLane="best" departSpeed="max"/>
    <vehicle id="v_197" type="car" route="EB1_full" depart="128.9" departLane="best" departSpeed="max"/>
    <vehicle id="v_198" type="car" route="WB1_half" depart="129.6" departLane="best" departSpeed="max"/>
    <vehicle id="v_199" type="car" route="S_turn_W_C" depart="130.3" departLane="best" departSpeed="max"/>
    <vehicle id="v_200" type="car" route="WB1_half" depart="130.9" departLane="best" departSpeed="max"/>
    <vehicle id="v_201" type="car" route="WB1_full" depart="131.6" departLane="best" departSpeed="max"/>
    <vehicle id="v_202" type="car" route="SB_A" depart="132.2" departLane="best" departSpeed="max"/>
    <vehicle id="v_203" type="car" route="SB_C" depart="132.9" departLane="best" departSpeed="max"/>
    <vehicle id="v_204" type="car" route="EB0_half" depart="133.5" departLane="best" departSpeed="max"/>
    <vehicle id="v_205" type="car" route="WB1_full" depart="134.2" departLane="best" departSpeed="max"/>
    <vehicle id="v_206" type="car" route="WB0_full" depart="134.8" departLane="best" departSpeed="max"/>
    <vehicle id="v_207" type="car" route="EB0_half" depart="135.5" departLane="best" departSpeed="max"/>
    <vehicle id="v_208" type="car" route="SB_B" depart="136.1" departLane="best" departSpeed="max"/>
    <vehicle id="v_209" type="car" route="WB1_half" depart="136.8" departLane="best" departSpeed="max"/>
    <vehicle id="v_210" type="car" route="EB0_half" depart="137.5" departLane="best" departSpeed="max"/>
    <vehicle id="v_211" type="car" route="EB1_half" depart="138.1" departLane="best" departSpeed="max"/>
    <vehicle id="v_212" type="car" route="NB_C" depart="138.8" departLane="best" departSpeed="max"/>
    <vehicle id="v_213" type="car" route="SB_A" depart="139.4" departLane="best" departSpeed="max"/>
    <vehicle id="v_214" type="car" route="EB0_half" depart="140.1" departLane="best" departSpeed="max"/>
    <vehicle id="v_215" type="car" route="W_turn_N_B" depart="140.7" departLane="best" departSpeed="max"/>
    <vehicle id="v_216" type="car" route="EB1_half" depart="141.4" departLane="best" departSpeed="max"/>
    <vehicle id="v_217" type="car" route="SB_C" depart="142.0" departLane="best" departSpeed="max"/>
    <vehicle id="v_218" type="car" route="NB_B" depart="142.7" departLane="best" departSpeed="max"/>
    <vehicle id="v_219" type="car" route="W_turn_N_B" depart="143.3" departLane="best" departSpeed="max"/>
    <vehicle id="v_220" type="car" route="SB_A" depart="144.0" departLane="best" departSpeed="max"/>
    <vehicle id="v_221" type="car" route="NB_B" depart="144.7" departLane="best" departSpeed="max"/>
    <vehicle id="v_222" type="car" route="N_turn_W_C" depart="145.3" departLane="best" departSpeed="max"/>
    <vehicle id="v_223" type="car" route="EB0_full" depart="146.0" departLane="best" departSpeed="max"/>
    <vehicle id="v_224" type="car" route="EB1_half" depart="146.6" departLane="best" departSpeed="max"/>
    <vehicle id="v_225" type="car" route="NB_C" depart="147.3" departLane="best" departSpeed="max"/>
    <vehicle id="v_226" type="car" route="EB0_half" depart="147.9" departLane="best" departSpeed="max"/>
    <vehicle id="v_227" type="car" route="WB0_half" depart="148.6" departLane="best" departSpeed="max"/>
    <vehicle id="v_228" type="car" route="W_turn_N_B" depart="149.2" departLane="best" departSpeed="max"/>
    <vehicle id="v_229" type="car" route="SB_B" depart="149.9" departLane="best" departSpeed="max"/>
    <vehicle id="v_230" type="car" route="NB_B" depart="150.5" departLane="best" departSpeed="max"/>
    <vehicle id="v_231" type="car" route="S_turn_E_A" depart="151.2" departLane="best" departSpeed="max"/>
    <vehicle id="v_232" type="car" route="SB_C" depart="151.9" departLane="best" departSpeed="max"/>
    <vehicle id="v_233" type="car" route="EB0_half" depart="152.5" departLane="best" departSpeed="max"/>
    <vehicle id="v_234" type="car" route="WB1_half" depart="153.2" departLane="best" departSpeed="max"/>
    <vehicle id="v_235" type="car" route="SB_A" depart="153.8" departLane="best" departSpeed="max"/>
    <vehicle id="v_236" type="car" route="SB_C" depart="154.5" departLane="best" departSpeed="max"/>
    <vehicle id="v_237" type="car" route="EB1_half" depart="155.1" departLane="best" departSpeed="max"/>
    <vehicle id="v_238" type="car" route="E_turn_N_B" depart="155.8" departLane="best" departSpeed="max"/>
    <vehicle id="v_239" type="car" route="EB0_half" depart="156.4" departLane="best" departSpeed="max"/>
    <vehicle id="v_240" type="car" route="EB1_full" depart="157.1" departLane="best" departSpeed="max"/>
    <vehicle id="v_241" type="car" route="N_turn_W_C" depart="157.7" departLane="best" departSpeed="max"/>
    <vehicle id="v_242" type="car" route="WB0_half" depart="158.4" departLane="best" departSpeed="max"/>
    <vehicle id="v_243" type="car" route="NB_C" depart="159.1" departLane="best" departSpeed="max"/>
    <vehicle id="v_244" type="car" route="WB0_full" depart="159.7" departLane="best" departSpeed="max"/>
    <vehicle id="v_245" type="car" route="SB_A" depart="160.4" departLane="best" departSpeed="max"/>
    <vehicle id="v_246" type="car" route="EB0_half" depart="161.0" departLane="best" departSpeed="max"/>
    <vehicle id="v_247" type="car" route="EB1_full" depart="161.7" departLane="best" departSpeed="max"/>
    <vehicle id="v_248" type="car" route="SB_C" depart="162.3" departLane="best" departSpeed="max"/>
    <vehicle id="v_249" type="car" route="NB_A" depart="163.0" departLane="best" departSpeed="max"/>
    <vehicle id="v_250" type="car" route="SB_C" depart="163.6" departLane="best" departSpeed="max"/>
    <vehicle id="v_251" type="car" route="NB_C" depart="164.3" departLane="best" departSpeed="max"/>
    <vehicle id="v_252" type="car" route="SB_C" depart="164.9" departLane="best" departSpeed="max"/>
    <vehicle id="v_253" type="car" route="EB1_full" depart="165.6" departLane="best" departSpeed="max"/>
    <vehicle id="v_254" type="car" route="SB_A" depart="166.3" departLane="best" departSpeed="max"/>
    <vehicle id="v_255" type="car" route="EB0_full" depart="166.9" departLane="best" departSpeed="max"/>
    <vehicle id="v_256" type="car" route="NB_A" depart="167.6" departLane="best" departSpeed="max"/>
    <vehicle id="v_257" type="car" route="NB_B" depart="168.2" departLane="best" departSpeed="max"/>
    <vehicle id="v_258" type="car" route="SB_A" depart="168.9" departLane="best" departSpeed="max"/>
    <vehicle id="v_259" type="car" route="NB_A" depart="169.5" departLane="best" departSpeed="max"/>
    <vehicle id="v_260" type="car" route="SB_B" depart="170.2" departLane="best" departSpeed="max"/>
    <vehicle id="v_261" type="car" route="N_turn_E_A" depart="170.8" departLane="best" departSpeed="max"/>
    <vehicle id="v_262" type="car" route="NB_C" depart="171.5" departLane="best" departSpeed="max"/>
    <vehicle id="v_263" type="car" route="SB_A" depart="172.1" departLane="best" departSpeed="max"/>
    <vehicle id="v_264" type="car" route="SB_C" depart="172.8" departLane="best" departSpeed="max"/>
    <vehicle id="v_265" type="car" route="EB1_full" depart="173.5" departLane="best" departSpeed="max"/>
    <vehicle id="v_266" type="car" route="SB_B" depart="174.1" departLane="best" departSpeed="max"/>
    <vehicle id="v_267" type="car" route="N_turn_E_A" depart="174.8" departLane="best" departSpeed="max"/>
    <vehicle id="v_268" type="car" route="WB1_half" depart="175.4" departLane="best" departSpeed="max"/>
    <vehicle id="v_269" type="car" route="SB_C" depart="176.1" departLane="best" departSpeed="max"/>
    <vehicle id="v_270" type="car" route="WB0_half" depart="176.7" departLane="best" departSpeed="max"/>
    <vehicle id="v_271" type="car" route="WB0_full" depart="177.4" departLane="best" departSpeed="max"/>
    <vehicle id="v_272" type="car" route="NB_B" depart="178.0" departLane="best" departSpeed="max"/>
    <vehicle id="v_273" type="car" route="NB_A" depart="178.7" departLane="best" departSpeed="max"/>
    <vehicle id="v_274" type="car" route="EB0_full" depart="179.3" departLane="best" departSpeed="max"/>
    <vehicle id="v_275" type="car" route="WB1_half" depart="180.0" departLane="best" departSpeed="max"/>
    <vehicle id="v_276" type="car" route="EB1_half" depart="180.7" departLane="best" departSpeed="max"/>
    <vehicle id="v_277" type="car" route="SB_C" depart="181.3" departLane="best" departSpeed="max"/>