<?xml version="1.0" encoding="UTF-8"?>
<!-- Demand profile: balanced | 1500 vehicles over 3600s -->
<routes>
    <vType id="car" accel="1.3" decel="2.25" sigma="0.5" length="5" minGap="2.5" maxSpeed="5.56"/>
    <route id="WB0_half" edges="C0B0 B0A0 A0left0"/>
    <route id="NB_A" edges="bottom0A0 A0A1 A1top0"/>
    <route id="EB0_half" edges="left0A0 A0B0"/>
    <route id="SB_B" edges="top1B1 B1B0 B0bottom1"/>
    <route id="EB0_full" edges="left0A0 A0B0 B0C0 C0right0"/>
    <route id="NB_B" edges="bottom1B0 B0B1 B1top1"/>
    <route id="SB_A" edges="top0A1 A1A0 A0bottom0"/>
    <route id="WB1_full" edges="right1C1 C1B1 B1A1 A1left1"/>
    <route id="NB_C" edges="bottom2C0 C0C1 C1top2"/>
    <route id="WB1_half" edges="C1B1 B1A1 A1left1"/>
    <route id="EB1_half" edges="left1A1 A1B1"/>
    <route id="S_turn_W_C" edges="bottom2C0 C0B0 B0A0 A0left0"/>
    <route id="SB_C" edges="top2C1 C1C0 C0bottom2"/>
    <route id="W_turn_N_B" edges="left0A0 A0B0 B0B1 B1top1"/>
    <route id="WB0_full" edges="right0C0 C0B0 B0A0 A0left0"/>
    <route id="N_turn_E_A" edges="top0A1 A1B1 B1C1 C1right1"/>
    <route id="N_turn_W_C" edges="top2C1 C1B1 B1A1 A1left1"/>
    <route id="S_turn_E_A" edges="bottom0A0 A0B0 B0C0 C0right0"/>
    <route id="E_turn_N_B" edges="right0C0 C0B0 B0B1 B1top1"/>
    <route id="EB1_full" edges="left1A1 A1B1 B1C1 C1right1"/>

    <vehicle id="v_0" type="car" route="WB0_half" depart="0.0" departLane="best" departSpeed="max"/>
    <vehicle id="v_1" type="car" route="NB_A" depart="2.4" departLane="best" departSpeed="max"/>
    <vehicle id="v_2" type="car" route="EB0_half" depart="4.8" departLane="best" departSpeed="max"/>
    <vehicle id="v_3" type="car" route="SB_B" depart="7.2" departLane="best" departSpeed="max"/>
    <vehicle id="v_4" type="car" route="NB_A" depart="9.6" departLane="best" departSpeed="max"/>
    <vehicle id="v_5" type="car" route="NB_A" depart="12.0" departLane="best" departSpeed="max"/>
    <vehicle id="v_6" type="car" route="EB0_full" depart="14.4" departLane="best" departSpeed="max"/>
    <vehicle id="v_7" type="car" route="NB_B" depart="16.8" departLane="best" departSpeed="max"/>
    <vehicle id="v_8" type="car" route="SB_A" depart="19.2" departLane="best" departSpeed="max"/>
    <vehicle id="v_9" type="car" route="SB_A" depart="21.6" departLane="best" departSpeed="max"/>
    <vehicle id="v_10" type="car" route="WB1_full" depart="24.0" departLane="best" departSpeed="max"/>
    <vehicle id="v_11" type="car" route="WB0_half" depart="26.4" departLane="best" departSpeed="max"/>
    <vehicle id="v_12" type="car" route="EB0_full" depart="28.8" departLane="best" departSpeed="max"/>
    <vehicle id="v_13" type="car" route="NB_C" depart="31.2" departLane="best" departSpeed="max"/>
    <vehicle id="v_14" type="car" route="WB1_half" depart="33.6" departLane="best" departSpeed="max"/>
    <vehicle id="v_15" type="car" route="EB1_half" depart="36.0" departLane="best" departSpeed="max"/>
    <vehicle id="v_16" type="car" route="SB_A" depart="38.4" departLane="best" departSpeed="max"/>
    <vehicle id="v_17" type="car" route="WB1_half" depart="40.8" departLane="best" departSpeed="max"/>
    <vehicle id="v_18" type="car" route="S_turn_W_C" depart="43.2" departLane="best" departSpeed="max"/>
    <vehicle id="v_19" type="car" route="NB_C" depart="45.6" departLane="best" departSpeed="max"/>
    <vehicle id="v_20" type="car" route="NB_C" depart="48.0" departLane="best" departSpeed="max"/>
    <vehicle id="v_21" type="car" route="SB_C" depart="50.4" departLane="best" departSpeed="max"/>
    <vehicle id="v_22" type="car" route="NB_B" depart="52.8" departLane="best" departSpeed="max"/>
    <vehicle id="v_23" type="car" route="NB_B" depart="55.2" departLane="best" departSpeed="max"/>
    <vehicle id="v_24" type="car" route="NB_B" depart="57.6" departLane="best" departSpeed="max"/>
    <vehicle id="v_25" type="car" route="EB1_half" depart="60.0" departLane="best" departSpeed="max"/>
    <vehicle id="v_26" type="car" route="WB0_half" depart="62.4" departLane="best" departSpeed="max"/>
    <vehicle id="v_27" type="car" route="SB_C" depart="64.8" departLane="best" departSpeed="max"/>
    <vehicle id="v_28" type="car" route="W_turn_N_B" depart="67.2" departLane="best" departSpeed="max"/>
    <vehicle id="v_29" type="car" route="EB1_half" depart="69.6" departLane="best" departSpeed="max"/>
    <vehicle id="v_30" type="car" route="SB_A" depart="72.0" departLane="best" departSpeed="max"/>
    <vehicle id="v_31" type="car" route="W_turn_N_B" depart="74.4" departLane="best" departSpeed="max"/>
    <vehicle id="v_32" type="car" route="EB1_half" depart="76.8" departLane="best" departSpeed="max"/>
    <vehicle id="v_33" type="car" route="WB0_full" depart="79.2" departLane="best" departSpeed="max"/>
    <vehicle id="v_34" type="car" route="NB_B" depart="81.6" departLane="best" departSpeed="max"/>
    <vehicle id="v_35" type="car" route="WB0_full" depart="84.0" departLane="best" departSpeed="max"/>
    <vehicle id="v_36" type="car" route="WB0_half" depart="86.4" departLane="best" departSpeed="max"/>
    <vehicle id="v_37" type="car" route="WB0_half" depart="88.8" departLane="best" departSpeed="max"/>
    <vehicle id="v_38" type="car" route="EB1_half" depart="91.2" departLane="best" departSpeed="max"/>
    <vehicle id="v_39" type="car" route="N_turn_E_A" depart="93.6" departLane="best" departSpeed="max"/>
    <vehicle id="v_40" type="car" route="N_turn_W_C" depart="96.0" departLane="best" departSpeed="max"/>
    <vehicle id="v_41" type="car" route="N_turn_E_A" depart="98.4" departLane="best" departSpeed="max"/>
    <vehicle id="v_42" type="car" route="EB0_full" depart="100.8" departLane="best" departSpeed="max"/>
    <vehicle id="v_43" type="car" route="SB_A" depart="103.2" departLane="best" departSpeed="max"/>
    <vehicle id="v_44" type="car" route="WB1_full" depart="105.6" departLane="best" departSpeed="max"/>
    <vehicle id="v_45" type="car" route="WB1_full" depart="108.0" departLane="best" departSpeed="max"/>
    <vehicle id="v_46" type="car" route="WB1_full" depart="110.4" departLane="best" departSpeed="max"/>
    <vehicle id="v_47" type="car" route="WB1_full" depart="112.8" departLane="best" departSpeed="max"/>
    <vehicle id="v_48" type="car" route="SB_A" depart="115.2" departLane="best" departSpeed="max"/>
    <vehicle id="v_49" type="car" route="N_turn_E_A" depart="117.6" departLane="best" departSpeed="max"/>
    <vehicle id="v_50" type="car" route="EB1_half" depart="120.0" departLane="best" departSpeed="max"/>
    <vehicle id="v_51" type="car" route="SB_C" depart="122.4" departLane="best" departSpeed="max"/>
    <vehicle id="v_52" type="car" route="WB1_half" depart="124.8" departLane="best" departSpeed="max"/>
    <vehicle id="v_53" type="car" route="EB0_half" depart="127.2" departLane="best" departSpeed="max"/>
    <vehicle id="v_54" type="car" route="WB1_full" depart="129.6" departLane="best" departSpeed="max"/>
    <vehicle id="v_55" type="car" route="SB_B" depart="132.0" departLane="best" departSpeed="max"/>
    <vehicle id="v_56" type="car" route="SB_C" depart="134.4" departLane="best" departSpeed="max"/>
    <vehicle id="v_57" type="car" route="N_turn_W_C" depart="136.8" departLane="best" departSpeed="max"/>
    <vehicle id="v_58" type="car" route="NB_A" depart="139.2" departLane="best" departSpeed="max"/>
    <vehicle id="v_59" type="car" route="EB0_half" depart="141.6" departLane="best" departSpeed="max"/>
    <vehicle id="v_60" type="car" route="WB1_full" depart="144.0" departLane="best" departSpeed="max"/>
    <vehicle id="v_61" type="car" route="WB0_half" depart="146.4" departLane="best" departSpeed="max"/>
    <vehicle id="v_62" type="car" route="WB0_full" depart="148.8" departLane="best" departSpeed="max"/>
    <vehicle id="v_63" type="car" route="SB_A" depart="151.2" departLane="best" departSpeed="max"/>
    <vehicle id="v_64" type="car" route="SB_B" depart="153.6" departLane="best" departSpeed="max"/>
    <vehicle id="v_65" type="car" route="S_turn_E_A" depart="156.0" departLane="best" departSpeed="max"/>
    <vehicle id="v_66" type="car" route="NB_C" depart="158.4" departLane="best" departSpeed="max"/>
    <vehicle id="v_67" type="car" route="EB0_half" depart="160.8" departLane="best" departSpeed="max"/>
    <vehicle id="v_68" type="car" route="EB0_full" depart="163.2" departLane="best" departSpeed="max"/>
    <vehicle id="v_69" type="car" route="NB_B" depart="165.6" departLane="best" departSpeed="max"/>
    <vehicle id="v_70" type="car" route="EB0_full" depart="168.0" departLane="best" departSpeed="max"/>
    <vehicle id="v_71" type="car" route="E_turn_N_B" depart="170.4" departLane="best" departSpeed="max"/>
    <vehicle id="v_72" type="car" route="EB1_half" depart="172.8" departLane="best" departSpeed="max"/>
    <vehicle id="v_73" type="car" route="WB0_full" depart="175.2" departLane="best" departSpeed="max"/>
    <vehicle id="v_74" type="car" route="NB_C" depart="177.6" departLane="best" departSpeed="max"/>
    <vehicle id="v_75" type="car" route="EB1_full" depart="180.0" departLane="best" departSpeed="max"/>
    <vehicle id="v_76" type="car" route="EB0_half" depart="182.4" departLane="best" departSpeed="max"/>
    <vehicle id="v_77" type="car" route="SB_A" depart="184.8" departLane="best" departSpeed="max"/>
    <vehicle id="v_78" type="car" route="E_turn_N_B" depart="187.2" departLane="best" departSpeed="max"/>
    <vehicle id="v_79" type="car" route="NB_C" depart="189.6" departLane="best" departSpeed="max"/>
    <vehicle id="v_80" type="car" route="NB_C" depart="192.0" departLane="best" departSpeed="max"/>
    <vehicle id="v_81" type="car" route="N_turn_W_C" depart="194.4" departLane="best" departSpeed="max"/>
    <vehicle id="v_82" type="car" route="NB_A" depart="196.8" departLane="best" departSpeed="max"/>
    <vehicle id="v_83" type="car" route="WB1_full" depart="199.2" departLane="best" departSpeed="max"/>
    <vehicle id="v_84" type="car" route="NB_A" depart="201.6" departLane="best" departSpeed="max"/>
    <vehicle id="v_85" type="car" route="S_turn_W_C" depart="204.0" departLane="best" departSpeed="max"/>
    <vehicle id="v_86" type="car" route="NB_A" depart="206.4" departLane="best" departSpeed="max"/>
    <vehicle id="v_87" type="car" route="S_turn_W_C" depart="208.8" departLane="best" departSpeed="max"/>
    <vehicle id="v_88" type="car" route="N_turn_W_C" depart="211.2" departLane="best" departSpeed="max"/>
    <vehicle id="v_89" type="car" route="WB1_half" depart="213.6" departLane="best" departSpeed="max"/>
    <vehicle id="v_90" type="car" route="NB_A" depart="216.0" departLane="best" departSpeed="max"/>
    <vehicle id="v_91" type="car" route="NB_B" depart="218.4" departLane="best" departSpeed="max"/>
    <vehicle id="v_92" type="car" route="WB1_full" depart="220.8" departLane="best" departSpeed="max"/>
    <vehicle id="v_93" type="car" route="NB_C" depart="223.2" departLane="best" departSpeed="max"/>
    <vehicle id="v_94" type="car" route="SB_C" depart="225.6" departLane="best" departSpeed="max"/>
    <vehicle id="v_95" type="car" route="NB_B" depart="228.0" departLane="best" departSpeed="max"/>
    <vehicle id="v_96" type="car" route="WB0_half" depart="230.4" departLane="best" departSpeed="max"/>
    <vehicle id="v_97" type="car" route="S_turn_E_A" depart="232.8" departLane="best" departSpeed="max"/>
    <vehicle id="v_98" type="car" route="EB0_full" depart="235.2" departLane="best" departSpeed="max"/>
    <vehicle id="v_99" type="car" route="NB_C" depart="237.6" departLane="best" departSpeed="max"/>
    <vehicle id="v_100" type="car" route="NB_A" depart="240.0" departLane="best" departSpeed="max"/>
    <vehicle id="v_101" type="car" route="SB_A" depart="242.4" departLane="best" departSpeed="max"/>
    <vehicle id="v_102" type="car" route="NB_C" depart="244.8" departLane="best" departSpeed="max"/>
    <vehicle id="v_103" type="car" route="SB_C" depart="247.2" departLane="best" departSpeed="max"/>
    <vehicle id="v_104" type="car" route="N_turn_E_A" depart="249.6" departLane="best" departSpeed="max"/>
    <vehicle id="v_105" type="car" route="WB0_half" depart="252.0" departLane="best" departSpeed="max"/>
    <vehicle id="v_106" type="car" route="SB_A" depart="254.4" departLane="best" departSpeed="max"/>
    <vehicle id="v_107" type="car" route="N_turn_E_A" depart="256.8" departLane="best" departSpeed="max"/>
    <vehicle id="v_108" type="car" route="NB_B" depart="259.2" departLane="best" departSpeed="max"/>
    <vehicle id="v_109" type="car" route="SB_B" depart="261.6" departLane="best" departSpeed="max"/>
    <vehicle id="v_110" type="car" route="EB0_half" depart="264.0" departLane="best" departSpeed="max"/>
    <vehicle id="v_111" type="car" route="SB_A" depart="266.4" departLane="best" departSpeed="max"/>
    <vehicle id="v_112" type="car" route="NB_B" depart="268.8" departLane="best" departSpeed="max"/>
    <vehicle id="v_113" type="car" route="EB0_half" depart="271.2" departLane="best" departSpeed="max"/>
    <vehicle id="v_114" type="car" route="W_turn_N_B" depart="273.6" departLane="best" departSpeed="max"/>
    <vehicle id="v_115" type="car" route="WB0_full" depart="276.0" departLane="best" departSpeed="max"/>
    <vehicle id="v_116" type="car" route="WB0_half" depart="278.4" departLane="best" departSpeed="max"/>
    <vehicle id="v_117" type="car" route="WB1_full" depart="280.8" departLane="best" departSpeed="max"/>
    <vehicle id="v_118" type="car" route="N_turn_E_A" depart="283.2" departLane="best" departSpeed="max"/>
    <vehicle id="v_119" type="car" route="WB0_half" depart="285.6" departLane="best" departSpeed="max"/>
    <vehicle id="v_120" type="car" route="NB_A" depart="288.0" departLane="best" departSpeed="max"/>
    <vehicle id="v_121" type="car" route="E_turn_N_B" depart="290.4" departLane="best" departSpeed="max"/>
    <vehicle id="v_122" type="car" route="NB_C" depart="292.8" departLane="best" departSpeed="max"/>
    <vehicle id="v_123" type="car" route="EB1_full" depart="295.2" departLane="best" departSpeed="max"/>
    <vehicle id="v_124" type="car" route="NB_B" depart="297.6" departLane="best" departSpeed="max"/>
    <vehicle id="v_125" type="car" route="SB_B" depart="300.0" departLane="best" departSpeed="max"/>
    <vehicle id="v_126" type="car" route="WB1_full" depart="302.4" departLane="best" departSpeed="max"/>
    <vehicle id="v_127" type="car" route="NB_C" depart="304.8" departLane="best" departSpeed="max"/>
    <vehicle id="v_128" type="car" route="EB0_full" depart="307.2" departLane="best" departSpeed="max"/>
    <vehicle id="v_129" type="car" route="EB1_full" depart="309.6" departLane="best" departSpeed="max"/>
    <vehicle id="v_130" type="car" route="WB1_half" depart="312.0" departLane="best" departSpeed="max"/>
    <vehicle id="v_131" type="car" route="EB0_full" depart="314.4" departLane="best" departSpeed="max"/>
    <vehicle id="v_132" type="car" route="SB_C" depart="316.8" departLane="best" departSpeed="max"/>
    <vehicle id="v_133" type="car" route="SB_C" depart="319.2" departLane="best" departSpeed="max"/>
    <vehicle id="v_134" type="car" route="N_turn_W_C" depart="321.6" departLane="best" departSpeed="max"/>
    <vehicle id="v_135" type="car" route="WB0_half" depart="324.0" departLane="best" departSpeed="max"/>
    <vehicle id="v_136" type="car" route="EB0_half" depart="326.4" departLane="best" departSpeed="max"/>
    <vehicle id="v_137" type="car" route="EB1_half" depart="328.8" departLane="best" departSpeed="max"/>
    <vehicle id="v_138" type="car" route="SB_A" depart="331.2" departLane="best" departSpeed="max"/>
    <vehicle id="v_139" type="car" route="WB0_full" depart="333.6" departLane="best" departSpeed="max"/>
    <vehicle id="v_140" type="car" route="SB_C" depart="336.0" departLane="best" departSpeed="max"/>
    <vehicle id="v_141" type="car" route="EB0_half" depart="338.4" departLane="best" departSpeed="max"/>
    <vehicle id="v_142" type="car" route="EB0_full" depart="340.8" departLane="best" departSpeed="max"/>
    <vehicle id="v_143" type="car" route="SB_A" depart="343.2" departLane="best" departSpeed="max"/>
    <vehicle id="v_144" type="car" route="EB1_full" depart="345.6" departLane="best" departSpeed="max"/>
    <vehicle id="v_145" type="car" route="SB_A" depart="348.0" departLane="best" departSpeed="max"/>
    <vehicle id="v_146" type="car" route="EB1_half" depart="350.4" departLane="best" departSpeed="max"/>
    <vehicle id="v_147" type="car" route="SB_C" depart="352.8" departLane="best" departSpeed="max"/>
    <vehicle id="v_148" type="car" route="NB_C" depart="355.2" departLane="best" departSpeed="max"/>
    <vehicle id="v_149" type="car" route="NB_C" depart="357.6" departLane="best" departSpeed="max"/>
    <vehicle id="v_150" type="car" route="EB1_full" depart="360.0" departLane="best" departSpeed="max"/>
    <vehicle id="v_151" type="car" route="WB1_full" depart="362.4" departLane="best" departSpeed="max"/>
    <vehicle id="v_152" type="car" route="NB_B" depart="364.8" departLane="best" departSpeed="max"/>
    <vehicle id="v_153" type="car" route="NB_B" depart="367.2" departLane="best" departSpeed="max"/>
    <vehicle id="v_154" type="car" route="SB_C" depart="369.6" departLane="best" departSpeed="max"/>
    <vehicle id="v_155" type="car" route="EB0_full" depart="372.0" departLane="best" departSpeed="max"/>
    <vehicle id="v_156" type="car" route="WB0_full" depart="374.4" departLane="best" departSpeed="max"/>
    <vehicle id="v_157" type="car" route="N_turn_E_A" depart="376.8" departLane="best" departSpeed="max"/>
    <vehicle id="v_158" type="car" route="NB_B" depart="379.2" departLane="best" departSpeed="max"/>
    <vehicle id="v_159" type="car" route="N_turn_E_A" depart="381.6" departLane="best" departSpeed="max"/>
    <vehicle id="v_160" type="car" route="EB1_full" depart="384.0" departLane="best" departSpeed="max"/>
    <vehicle id="v_161" type="car" route="WB1_full" depart="386.4" departLane="best" departSpeed="max"/>
    <vehicle id="v_162" type="car" route="S_turn_E_A" depart="388.8" departLane="best" departSpeed="max"/>
    <vehicle id="v_163" type="car" route="SB_A" depart="391.2" departLane="best" departSpeed="max"/>
    <vehicle id="v_164" type="car" route="W_turn_N_B" depart="393.6" departLane="best" departSpeed="max"/>
    <vehicle id="v_165" type="car" route="SB_B" depart="396.0" departLane="best" departSpeed="max"/>
    <vehicle id="v_166" type="car" route="EB1_full" depart="398.4" departLane="best" departSpeed="max"/>
    <vehicle id="v_167" type="car" route="WB1_half" depart="400.8" departLane="best" departSpeed="max"/>
    <vehicle id="v_168" type="car" route="WB1_full" depart="403.2" departLane="best" departSpeed="max"/>
    <vehicle id="v_169" type="car" route="SB_A" depart="405.6" departLane="best" departSpeed="max"/>
    <vehicle id="v_170" type="car" route="WB1_full" depart="408.0" departLane="best" departSpeed="max"/>
    <vehicle id="v_171" type="car" route="SB_A" depart="410.4" departLane="best" departSpeed="max"/>
    <vehicle id="v_172" type="car" route="N_turn_E_A" depart="412.8" departLane="best" departSpeed="max"/>
    <vehicle id="v_173" type="car" route="WB0_full" depart="415.2" departLane="best" departSpeed="max"/>
    <vehicle id="v_174" type="car" route="W_turn_N_B" depart="417.6" departLane="best" departSpeed="max"/>
    <vehicle id="v_175" type="car" route="E_turn_N_B" depart="420.0" departLane="best" departSpeed="max"/>
    <vehicle id="v_176" type="car" route="S_turn_W_C" depart="422.4" departLane="best" departSpeed="max"/>
    <vehicle id="v_177" type="car" route="SB_C" depart="424.8" departLane="best" departSpeed="max"/>
    <vehicle id="v_178" type="car" route="EB0_half" depart="427.2" departLane="best" departSpeed="max"/>
    <vehicle id="v_179" type="car" route="NB_C" depart="429.6" departLane="best" departSpeed="max"/>
    <vehicle id="v_180" type="car" route="WB1_half" depart="432.0" departLane="best" departSpeed="max"/>
    <vehicle id="v_181" type="car" route="WB1_full" depart="434.4" departLane="best" departSpeed="max"/>
    <vehicle id="v_182" type="car" route="SB_B" depart="436.8" departLane="best" departSpeed="max"/>
    <vehicle id="v_183" type="car" route="WB0_half" depart="439.2" departLane="best" departSpeed="max"/>
    <vehicle id="v_184" type="car" route="WB0_full" depart="441.6" departLane="best" departSpeed="max"/>
    <vehicle id="v_185" type="car" route="N_turn_W_C" depart="444.0" departLane="best" departSpeed="max"/>
    <vehicle id="v_186" type="car" route="EB0_half" depart="446.4" departLane="best" departSpeed="max"/>
    <vehicle id="v_187" type="car" route="E_turn_N_B" depart="448.8" departLane="best" departSpeed="max"/>
    <vehicle id="v_188" type="car" route="N_turn_W_C" depart="451.2" departLane="best" departSpeed="max"/>
    <vehicle id="v_189" type="car" route="WB1_full" depart="453.6" departLane="best" departSpeed="max"/>
    <vehicle id="v_190" type="car" route="WB0_full" depart="456.0" departLane="best" departSpeed="max"/>
    <vehicle id="v_191" type="car" route="W_turn_N_B" depart="458.4" departLane="best" departSpeed="max"/>
    <vehicle id="v_192" type="car" route="EB0_half" depart="460.8" departLane="best" departSpeed="max"/>
    <vehicle id="v_193" type="car" route="SB_A" depart="463.2" departLane="best" departSpeed="max"/>
    <vehicle id="v_194" type="car" route="EB0_half" depart="465.6" departLane="best" departSpeed="max"/>
    <vehicle id="v_195" type="car" route="EB1_full" depart="468.0" departLane="best" departSpeed="max"/>
    <vehicle id="v_196" type="car" route="S_turn_E_A" depart="470.4" departLane="best" departSpeed="max"/>
    <vehicle id="v_197" type="car" route="SB_A" depart="472.8" departLane="best" departSpeed="max"/>
    <vehicle id="v_198" type="car" route="EB0_half" depart="475.2" departLane="best" departSpeed="max"/>
    <vehicle id="v_199" type="car" route="EB1_full" depart="477.6" departLane="best" departSpeed="max"/>
    <vehicle id="v_200" type="car" route="NB_C" depart="480.0" departLane="best" departSpeed="max"/>
    <vehicle id="v_201" type="car" route="NB_A" depart="482.4" departLane="best" departSpeed="max"/>
    <vehicle id="v_202" type="car" route="WB0_half" depart="484.8" departLane="best" departSpeed="max"/>
    <vehicle id="v_203" type="car" route="NB_A" depart="487.2" departLane="best" departSpeed="max"/>
    <vehicle id="v_204" type="car" route="SB_B" depart="489.6" departLane="best" departSpeed="max"/>
    <vehicle id="v_205" type="car" route="SB_C" depart="492.0" departLane="best" departSpeed="max"/>
    <vehicle id="v_206" type="car" route="WB1_full" depart="494.4" departLane="best" departSpeed="max"/>
    <vehicle id="v_207" type="car" route="NB_B" depart="496.8" departLane="best" departSpeed="max"/>
    <vehicle id="v_208" type="car" route="SB_A" depart="499.2" departLane="best" departSpeed="max"/>
    <vehicle id="v_209" type="car" route="NB_C" depart="501.6" departLane="best" departSpeed="max"/>
    <vehicle id="v_210" type="car" route="S_turn_E_A" depart="504.0" departLane="best" departSpeed="max"/>
    <vehicle id="v_211" type="car" route="EB0_half" depart="506.4" departLane="best" departSpeed="max"/>
    <vehicle id="v_212" type="car" route="NB_C" depart="508.8" departLane="best" departSpeed="max"/>
    <vehicle id="v_213" type="car" route="SB_B" depart="511.2" departLane="best" departSpeed="max"/>
    <vehicle id="v_214" type="car" route="SB_A" depart="513.6" departLane="best" departSpeed="max"/>
    <vehicle id="v_215" type="car" route="N_turn_E_A" depart="516.0" departLane="best" departSpeed="max"/>
    <vehicle id="v_216" type="car" route="EB0_half" depart="518.4" departLane="best" departSpeed="max"/>
    <vehicle id="v_217" type="car" route="EB1_full" depart="520.8" departLane="best" departSpeed="max"/>
    <vehicle id="v_218" type="car" route="NB_A" depart="523.2" departLane="best" departSpeed="max"/>
    <vehicle id="v_219" type="car" route="EB0_full" depart="525.6" departLane="best" departSpeed="max"/>
    <vehicle id="v_220" type="car" route="EB0_full" depart="528.0" departLane="best" departSpeed="max"/>
    <vehicle id="v_221" type="car" route="SB_B" depart="530.4" departLane="best" departSpeed="max"/>
    <vehicle id="v_222" type="car" route="SB_A" depart="532.8" departLane="best" departSpeed="max"/>
    <vehicle id="v_223" type="car" route="WB1_half" depart="535.2" departLane="best" departSpeed="max"/>
    <vehicle id="v_224" type="car" route="WB1_full" depart="537.6" departLane="best" departSpeed="max"/>
    <vehicle id="v_225" type="car" route="SB_B" depart="540.0" departLane="best" departSpeed="max"/>
    <vehicle id="v_226" type="car" route="W_turn_N_B" depart="542.4" departLane="best" departSpeed="max"/>
    <vehicle id="v_227" type="car" route="EB0_full" depart="544.8" departLane="best" departSpeed="max"/>
    <vehicle id="v_228" type="car" route="EB1_half" depart="547.2" departLane="best" departSpeed="max"/>
    <vehicle id="v_229" type="car" route="WB0_full" depart="549.6" departLane="best" departSpeed="max"/>
    <vehicle id="v_230" type="car" route="W_turn_N_B" depart="552.0" departLane="best" departSpeed="max"/>
    <vehicle id="v_231" type="car" route="NB_B" depart="554.4" departLane="best" departSpeed="max"/>
    <vehicle id="v_232" type="car" route="EB0_full" depart="556.8" departLane="best" departSpeed="max"/>
    <vehicle id="v_233" type="car" route="SB_C" depart="559.2" departLane="best" departSpeed="max"/>
    <vehicle id="v_234" type="car" route="SB_C" depart="561.6" departLane="best" departSpeed="max"/>
    <vehicle id="v_235" type="car" route="SB_B" depart="564.0" departLane="best" departSpeed="max"/>
    <vehicle id="v_236" type="car" route="EB1_half" depart="566.4" departLane="best" departSpeed="max"/>
    <vehicle id="v_237" type="car" route="NB_C" depart="568.8" departLane="best" departSpeed="max"/>
    <vehicle id="v_238" type="car" route="WB1_full" depart="571.2" departLane="best" departSpeed="max"/>
    <vehicle id="v_239" type="car" route="NB_B" depart="573.6" departLane="best" departSpeed="max"/>
    <vehicle id="v_240" type="car" route="SB_B" depart="576.0" departLane="best" departSpeed="max"/>
    <vehicle id="v_241" type="car" route="E_turn_N_B" depart="578.4" departLane="best" departSpeed="max"/>
    <vehicle id="v_242" type="car" route="SB_C" depart="580.8" departLane="best" departSpeed="max"/>
    <vehicle id="v_243" type="car" route="E_turn_N_B" depart="583.2" departLane="best" departSpeed="max"/>
    <vehicle id="v_244" type="car" route="S_turn_W_C" depart="585.6" departLane="best" departSpeed="max"/>
    <vehicle id="v_245" type="car" route="NB_C" depart="588.0" departLane="best" departSpeed="max"/>
    <vehicle id="v_246" type="car" route="SB_A" depart="590.4" departLane="best" departSpeed="max"/>
    <vehicle id="v_247" type="car" route="WB1_half" depart="592.8" departLane="best" departSpeed="max"/>
    <vehicle id="v_248" type="car" route="SB_B" depart="595.2" departLane="best" departSpeed="max"/>
    <vehicle id="v_249" type="car" route="N_turn_E_A" depart="597.6" departLane="best" departSpeed="max"/>
    <vehicle id="v_250" type="car" route="EB0_half" depart="600.0" departLane="best" departSpeed="max"/>
    <vehicle id="v_251" type="car" route="S_turn_W_C" depart="602.4" departLane="best" departSpeed="max"/>
    <vehicle id="v_252" type="car" route="WB0_full" depart="604.8" departLane="best" departSpeed="max"/>
    <vehicle id="v_253" type="car" route="S_turn_E_A" depart="607.2" departLane="best" departSpeed="max"/>
    <vehicle id="v_254" type="car" route="NB_C" depart="609.6" departLane="best" departSpeed="max"/>
    <vehicle id="v_255" type="car" route="WB1_full" depart="612.0" departLane="best" departSpeed="max"/>
    <vehicle id="v_256" type="car" route="WB0_full" depart="614.4" departLane="best" departSpeed="max"/>
    <vehicle id="v_257" type="car" route="SB_A" depart="616.8" departLane="best" departSpeed="max"/>
    <vehicle id="v_258" type="car" route="E_turn_N_B" depart="619.2" departLane="best" departSpeed="max"/>
    <vehicle id="v_259" type="car" route="SB_C" depart="621.6" departLane="best" departSpeed="max"/>
    <vehicle id="v_260" type="car" route="WB0_half" depart="624.0" departLane="best" departSpeed="max"/>
    <vehicle id="v_261" type="car" route="S_turn_E_A" depart="626.4" departLane="best" departSpeed="max"/>
    <vehicle id="v_262" type="car" route="NB_B" depart="628.8" departLane="best" departSpeed="max"/>
    <vehicle id="v_263" type="car" route="SB_C" depart="631.2" departLane="best" departSpeed="max"/>
    <vehicle id="v_264" type="car" route="SB_B" depart="633.6" departLane="best" departSpeed="max"/>
    <vehicle id="v_265" type="car" route="WB1_full" depart="636.0" departLane="best" departSpeed="max"/>
    <vehicle id="v_266" type="car" route="W_turn_N_B" depart="638.4" departLane="best" departSpeed="max"/>
    <vehicle id="v_267" type="car" route="EB0_half" depart="640.8" departLane="best" departSpeed="max"/>
    <vehicle id="v_268" type="car" route="EB1_full" depart="643.2" departLane="best" departSpeed="max"/>
    <vehicle id="v_269" type="car" route="NB_A" depart="645.6" departLane="best" departSpeed="max"/>
    <vehicle id="v_270" type="car" route="SB_C" depart="648.0" departLane="best" departSpeed="max"/>
    <vehicle id="v_271" type="car" route="SB_B" depart="650.4" departLane="best" departSpeed="max"/>
    <vehicle id="v_272" type="car" route="WB1_half" depart="652.8" departLane="best" departSpeed="max"/>
    <vehicle id="v_273" type="car" route="NB_B" depart="655.2" departLane="best" departSpeed="max"/>
    <vehicle id="v_274" type="car" route="EB0_half" depart="657.6" departLane="best" departSpeed="max"/>
    <vehicle id="v_275" type="car" route="N_turn_W_C" depart="660.0" departLane="best" departSpeed="max"/>
    <vehicle id="v_276" type="car" route="EB1_half" depart="662.4" departLane="best" departSpeed="max"/>