<?xml version='1.0' encoding='UTF-8'?>
<nodes>
  <node id="A0" x="0" y="0" type="traffic_light" />
  <node id="B0" x="700" y="0" type="traffic_light" />
  <node id="C0" x="1400" y="0" type="traffic_light" />
  <node id="A1" x="0" y="500" type="traffic_light" />
  <node id="B1" x="700" y="500" type="traffic_light" />
  <node id="C1" x="1400" y="500" type="traffic_light" />
  <node id="left0" x="-500" y="0" type="priority" />
  <node id="left1" x="-500" y="500" type="priority" />
  <node id="right0" x="1900" y="0" type="priority" />
  <node id="right1" x="1900" y="500" type="priority" />
  <node id="bottom0" x="0" y="-500" type="priority" />
  <node id="bottom1" x="700" y="-500" type="priority" />
  <node id="bottom2" x="1400" y="-500" type="priority" />
  <node id="top0" x="0" y="1000" type="priority" />
  <node id="top1" x="700" y="1000" type="priority" />
  <node id="top2" x="1400" y="1000" type="priority" />
</nodes>