<?xml version="1.0" encoding="UTF-8"?>

<!-- generated on 2026-04-25T11:43:34.942125+03:00 by Eclipse SUMO netconvert 1.26.0
<netconvertConfiguration xmlns:xsi="http://www.w3.org/2001/XMLSchema-instance" xsi:noNamespaceSchemaLocation="http://sumo.dlr.de/xsd/netconvertConfiguration.xsd">

    <input>
        <opendrive-files value="Town03.xodr"/>
    </input>

    <output>
        <output-file value="carla_town03.net.xml"/>
    </output>

    <processing>
        <geometry.remove value="true"/>
    </processing>

    <ramp_guessing>
        <ramps.guess value="false"/>
    </ramp_guessing>

    <junctions>
        <no-turnarounds.except-deadend value="true"/>
    </junctions>

</netconvertConfiguration>
-->

<net version="1.20" junctionCornerDetail="5" rectangularLaneCut="true" limitTurnSpeed="5.50" xmlns:xsi="http://www.w3.org/2001/XMLSchema-instance" xsi:noNamespaceSchemaLocation="http://sumo.dlr.de/xsd/net_file.xsd">

    <location netOffset="147.31,198.86" convBoundary="0.00,0.00,387.55,402.89" origBoundary="0.000000,0.000000,0.000000,0.000000" projParameter="+proj=tmerc +lat_0=0 +lon_0=0 +k=1 +x_0=0 +y_0=0 +datum=WGS84 +units=m  +vunits=m +no_defs "/>

    <type id="driving" priority="1" speed="13.89" disallow="pedestrian tram rail_urban rail rail_electric rail_fast ship container cable_car subway aircraft wheelchair scooter drone" width="3.65"/>

    <edge id=":1019_0" function="internal">
        <lane id=":1019_0_0" index="0" disallow="pedestrian tram rail_urban rail rail_electric rail_fast ship container cable_car subway aircraft wheelchair scooter drone" speed="13.89" length="22.63" width="3.50" shape="153.10,19.64 152.95,42.28"/>
        <lane id=":1019_0_1" index="1" disallow="pedestrian tram rail_urban rail rail_electric rail_fast ship container cable_car subway aircraft wheelchair scooter drone" speed="13.89" length="22.63" width="3.50" shape="149.60,19.64 149.45,42.26"/>
    </edge>
    <edge id=":1019_2" function="internal">
        <lane id=":1019_2_0" index="0" disallow="pedestrian tram rail_urban rail rail_electric rail_fast ship container cable_car subway aircraft wheelchair scooter drone" speed="11.08" length="20.75" width="3.50" shape="137.95,42.19 137.15,37.69 134.70,33.80 130.61,30.52 124.87,27.85"/>
    </edge>
    <edge id=":1019_3" function="internal">
        <lane id=":1019_3_0" index="0" disallow="pedestrian tram rail_urban rail rail_electric rail_fast ship container cable_car subway aircraft wheelchair scooter drone" speed="13.89" length="22.59" width="3.50" shape="137.95,42.19 138.10,19.61"/>
        <lane id=":1019_3_1" index="1" disallow="pedestrian tram rail_urban rail rail_electric rail_fast ship container cable_car subway aircraft wheelchair scooter drone" speed="13.89" length="22.59" width="3.50" shape="141.45,42.21 141.60,19.61"/>
    </edge>
    <edge id=":103_0" function="internal">
        <lane id=":103_0_0" index="0" disallow="pedestrian tram rail_urban rail rail_electric rail_fast ship container cable_car subway aircraft wheelchair scooter drone" speed="10.03" length="22.96" width="3.50" shape="168.50,68.07 161.62,68.77 156.70,71.09 153.73,75.04 152.71,80.61">
            <param key="signalID" value="1997"/>
        </lane>
    </edge>
    <edge id=":103_1" function="internal">
        <lane id=":103_1_0" index="0" disallow="pedestrian tram rail_urban rail rail_electric rail_fast ship container cable_car subway aircraft wheelchair scooter drone" speed="13.89" length="40.19" width="3.50" shape="168.50,68.07 128.31,67.97">
            <param key="signalID" value="1997"/>
        </lane>
    </edge>
    <edge id=":103_2" function="internal">
        <lane id=":103_2_0" index="0" disallow="pedestrian tram rail_urban rail rail_electric rail_fast ship container cable_car subway aircraft wheelchair scooter drone" speed="12.67" length="8.08" width="3.50" shape="168.50,68.07 160.46,67.20">
            <param key="signalID" value="1995 1996"/>
        </lane>
    </edge>
    <edge id=":103_14" function="internal">
        <lane id=":103_14_0" index="0" disallow="pedestrian tram rail_urban rail rail_electric rail_fast ship container cable_car subway aircraft wheelchair scooter drone" speed="12.67" length="28.72" width="3.50" shape="160.46,67.20 156.61,66.78 148.13,63.28 143.07,57.59 141.41,49.70">
            <param key="signalID" value="1995 1996"/>
        </lane>
    </edge>
    <edge id=":103_3" function="internal">
        <lane id=":103_3_0" index="0" disallow="pedestrian tram rail_urban rail rail_electric rail_fast ship container cable_car subway aircraft wheelchair scooter drone" speed="10.41" length="24.49" width="3.50" shape="152.91,49.77 153.86,56.16 156.78,60.76 161.68,63.56 168.54,64.57"/>
    </edge>
    <edge id=":103_4" function="internal">
        <lane id=":103_4_0" index="0" disallow="pedestrian tram rail_urban rail rail_electric rail_fast ship container cable_car subway aircraft wheelchair scooter drone" speed="13.89" length="30.84" width="3.50" shape="152.91,49.77 152.71,80.61">
            <param key="signalID" value="1995"/>
        </lane>
        <lane id=":103_4_1" index="1" disallow="pedestrian tram rail_urban rail rail_electric rail_fast ship container cable_car subway aircraft wheelchair scooter drone" speed="13.89" length="30.84" width="3.50" shape="149.41,49.75 149.21,80.59">
            <param key="signalID" value="1995"/>
        </lane>
    </edge>
    <edge id=":103_6" function="internal">
        <lane id=":103_6_0" index="0" disallow="pedestrian tram rail_urban rail rail_electric rail_fast ship container cable_car subway aircraft wheelchair scooter drone" speed="11.71" length="15.07" width="3.50" shape="149.41,49.75 148.05,57.90 144.19,63.51">
            <param key="signalID" value="1994"/>
        </lane>
    </edge>
    <edge id=":103_15" function="internal">
        <lane id=":103_15_0" index="0" disallow="pedestrian tram rail_urban rail rail_electric rail_fast ship container cable_car subway aircraft wheelchair scooter drone" speed="11.71" length="16.81" width="3.50" shape="144.19,63.51 144.09,63.65 137.50,67.01 128.31,67.97">
            <param key="signalID" value="1994"/>
        </lane>
    </edge>
    <edge id=":103_7" function="internal">
        <lane id=":103_7_0" index="0" disallow="pedestrian tram rail_urban rail rail_electric rail_fast ship container cable_car subway aircraft wheelchair scooter drone" speed="9.33" length="19.82" width="3.50" shape="128.39,64.47 132.52,63.63 135.49,60.88 137.29,56.23 137.91,49.68">
            <param key="signalID" value="1996"/>
        </lane>
    </edge>
    <edge id=":103_8" function="internal">
        <lane id=":103_8_0" index="0" disallow="pedestrian tram rail_urban rail rail_electric rail_fast ship container cable_car subway aircraft wheelchair scooter drone" speed="13.89" length="40.16" width="3.50" shape="128.39,64.47 168.54,64.57">
            <param key="signalID" value="1996"/>
        </lane>
    </edge>
    <edge id=":103_9" function="internal">
        <lane id=":103_9_0" index="0" disallow="pedestrian tram rail_urban rail rail_electric rail_fast ship container cable_car subway aircraft wheelchair scooter drone" speed="11.46" length="6.79" width="3.50" shape="128.39,64.47 135.12,65.34">
            <param key="signalID" value="1996 1997"/>
        </lane>
    </edge>
    <edge id=":103_16" function="internal">
        <lane id=":103_16_0" index="0" disallow="pedestrian tram rail_urban rail rail_electric rail_fast ship container cable_car subway aircraft wheelchair scooter drone" speed="11.46" length="22.95" width="3.50" shape="135.12,65.34 137.54,65.66 144.05,68.74 147.95,73.72 149.21,80.59">
            <param key="signalID" value="1996 1997"/>
        </lane>
    </edge>
    <edge id=":103_10" function="internal">
        <lane id=":103_10_0" index="0" disallow="pedestrian tram rail_urban rail rail_electric rail_fast ship container cable_car subway aircraft wheelchair scooter drone" speed="8.96" length="17.73" width="3.50" shape="137.71,80.52 137.15,75.11 135.40,71.21 132.45,68.83 128.31,67.97"/>
    </edge>
    <edge id=":103_11" function="internal">
        <lane id=":103_11_0" index="0" disallow="pedestrian tram rail_urban rail rail_electric rail_fast ship container cable_car subway aircraft wheelchair scooter drone" speed="13.89" length="30.84" width="3.50" shape="137.71,80.52 137.91,49.68">
            <param key="signalID" value="1994"/>
        </lane>
        <lane id=":103_11_1" index="1" disallow="pedestrian tram rail_urban rail rail_electric rail_fast ship container cable_car subway aircraft wheelchair scooter drone" speed="13.89" length="30.84" width="3.50" shape="141.21,80.54 141.41,49.70">
            <param key="signalID" value="1994"/>
        </lane>
    </edge>
    <edge id=":103_13" function="internal">
        <lane id=":103_13_0" index="0" disallow="pedestrian tram rail_urban rail rail_electric rail_fast ship container cable_car subway aircraft wheelchair scooter drone" speed="12.37" length="12.35" width="3.50" shape="141.21,80.54 142.96,73.41 146.53,69.90">
            <param key="signalID" value="1994 1995"/>
        </lane>
    </edge>
    <edge id=":103_17" function="internal">
        <lane id=":103_17_0" index="0" disallow="pedestrian tram rail_urban rail rail_electric rail_fast ship container cable_car subway aircraft wheelchair scooter drone" speed="12.37" length="23.17" width="3.50" shape="146.53,69.90 148.10,68.37 156.62,65.42 168.54,64.57">
            <param key="signalID" value="1994 1995"/>
        </lane>
    </edge>
    <edge id=":1038_0" function="internal">
        <lane id=":1038_0_0" index="0" disallow="pedestrian tram rail_urban rail rail_electric rail_fast ship container cable_car subway aircraft wheelchair scooter drone" speed="13.89" length="34.70" width="3.50" shape="332.97,140.01 298.26,139.93"/>
    </edge>
    <edge id=":1038_1" function="internal">
        <lane id=":1038_1_0" index="0" disallow="pedestrian tram rail_urban rail rail_electric rail_fast ship container cable_car subway aircraft wheelchair scooter drone" speed="11.59" length="5.72" width="3.50" shape="332.97,140.01 327.31,139.14,0.03"/>
    </edge>
    <edge id=":1038_6" function="internal">
        <lane id=":1038_6_0" index="0" disallow="pedestrian tram rail_urban rail rail_electric rail_fast ship container cable_car subway aircraft wheelchair scooter drone" speed="11.59" length="25.02" width="3.50" shape="327.31,139.14,0.03 324.88,138.76,0.04 319.10,135.07,0.07 315.64,128.93,0.11 314.48,120.35,0.15"/>
    </edge>
    <edge id=":1038_2" function="internal">
        <lane id=":1038_2_0" index="0" disallow="pedestrian tram rail_urban rail rail_electric rail_fast ship container cable_car subway aircraft wheelchair scooter drone" speed="10.51" length="25.11" width="3.50" shape="317.98,120.35,0.15 318.92,127.40,0.11 321.73,132.45,0.07 326.41,135.48,0.04 332.97,136.51"/>
    </edge>
    <edge id=":1038_3" function="internal">
        <lane id=":1038_3_0" index="0" disallow="pedestrian tram rail_urban rail rail_electric rail_fast ship container cable_car subway aircraft wheelchair scooter drone" speed="11.74" length="31.71" width="3.50" shape="317.98,120.35,0.15 316.75,128.94,0.11 313.05,135.07,0.08 306.89,138.73,0.04 298.26,139.93"/>
    </edge>
    <edge id=":1038_4" function="internal">
        <lane id=":1038_4_0" index="0" disallow="pedestrian tram rail_urban rail rail_electric rail_fast ship container cable_car subway aircraft wheelchair scooter drone" speed="10.68" length="26.05" width="3.50" shape="298.28,136.43 305.37,135.45,0.04 310.43,132.44,0.08 313.47,127.41,0.11 314.48,120.35,0.15"/>
    </edge>
    <edge id=":1038_5" function="internal">
        <lane id=":1038_5_0" index="0" disallow="pedestrian tram rail_urban rail rail_electric rail_fast ship container cable_car subway aircraft wheelchair scooter drone" speed="13.89" length="34.70" width="3.50" shape="298.28,136.43 332.97,136.51"/>
    </edge>
    <edge id=":1082_0" function="internal">
        <lane id=":1082_0_0" index="0" disallow="pedestrian tram rail_urban rail rail_electric rail_fast ship container cable_car subway aircraft wheelchair scooter drone" speed="13.05" length="32.30" width="3.50" shape="176.75,206.98,-0.01 169.35,208.50,-0.01 163.45,212.57,-0.01 159.05,219.20,-0.00 156.13,228.37"/>
    </edge>
    <edge id=":1082_1" function="internal">
        <lane id=":1082_1_0" index="0" disallow="pedestrian tram rail_urban rail rail_electric rail_fast ship container cable_car subway aircraft wheelchair scooter drone" speed="13.89" length="32.70" width="3.50" shape="176.75,206.98,-0.01 169.46,209.41,-0.01 162.41,214.48,-0.00 155.37,219.54,-0.00 148.08,221.90"/>
    </edge>
    <edge id=":1082_2" function="internal">
        <lane id=":1082_2_0" index="0" disallow="pedestrian tram rail_urban rail rail_electric rail_fast ship container cable_car subway aircraft wheelchair scooter drone" speed="13.89" length="22.04" width="3.50" shape="176.64,203.48,-0.01 168.00,205.20,-0.01 161.13,209.81,-0.01 158.34,213.91,-0.00"/>
    </edge>
    <edge id=":1082_3" function="internal">
        <lane id=":1082_3_0" index="0" disallow="pedestrian tram rail_urban rail rail_electric rail_fast ship container cable_car subway aircraft wheelchair scooter drone" speed="13.89" length="32.67" width="3.50" shape="176.64,203.48,-0.01 169.36,205.91,-0.01 162.33,210.98,-0.00 155.29,216.03,-0.00 148.01,218.41"/>
    </edge>
    <edge id=":1082_8" function="internal">
        <lane id=":1082_8_0" index="0" disallow="pedestrian tram rail_urban rail rail_electric rail_fast ship container cable_car subway aircraft wheelchair scooter drone" speed="13.89" length="14.98" width="3.50" shape="158.34,213.91,-0.00 156.03,217.30,-0.00 152.70,227.66"/>
    </edge>
    <edge id=":1082_4" function="internal">
        <lane id=":1082_4_0" index="0" disallow="pedestrian tram rail_urban rail rail_electric rail_fast ship container cable_car subway aircraft wheelchair scooter drone" speed="13.89" length="32.94" width="3.50" shape="170.25,198.90 168.33,206.35 163.95,213.71 159.19,221.04 156.13,228.37"/>
    </edge>
    <edge id=":1082_5" function="internal">
        <lane id=":1082_5_0" index="0" disallow="pedestrian tram rail_urban rail rail_electric rail_fast ship container cable_car subway aircraft wheelchair scooter drone" speed="12.63" length="4.71" width="3.50" shape="170.25,198.90 169.60,203.56"/>
    </edge>
    <edge id=":1082_6" function="internal">
        <lane id=":1082_6_0" index="0" disallow="pedestrian tram rail_urban rail rail_electric rail_fast ship container cable_car subway aircraft wheelchair scooter drone" speed="13.89" length="32.29" width="3.50" shape="166.75,198.90 164.84,206.24 160.49,213.36 155.75,220.44 152.70,227.66"/>
    </edge>
    <edge id=":1082_7" function="internal">
        <lane id=":1082_7_0" index="0" disallow="pedestrian tram rail_urban rail rail_electric rail_fast ship container cable_car subway aircraft wheelchair scooter drone" speed="11.65" length="6.70" width="3.50" shape="166.75,198.90 165.82,205.53"/>
    </edge>
    <edge id=":1082_9" function="internal">
        <lane id=":1082_9_0" index="0" disallow="pedestrian tram rail_urban rail rail_electric rail_fast ship container cable_car subway aircraft wheelchair scooter drone" speed="12.63" length="31.58" width="3.50" shape="169.60,203.56 168.86,208.81 164.71,215.95 157.78,220.31 148.08,221.90"/>
    </edge>
    <edge id=":1082_10" function="internal">
        <lane id=":1082_10_0" index="0" disallow="pedestrian tram rail_urban rail rail_electric rail_fast ship container cable_car subway aircraft wheelchair scooter drone" speed="11.65" length="24.02" width="3.50" shape="165.82,205.53 165.58,207.30 162.06,213.35 156.21,217.05 148.01,218.41"/>
    </edge>
    <edge id=":1135_0" function="internal">
        <lane id=":1135_0_0" index="0" disallow="pedestrian tram rail_urban rail rail_electric rail_fast ship container cable_car subway aircraft wheelchair scooter drone" speed="9.11" length="18.43" width="3.50" shape="379.34,216.04 378.55,210.74 376.46,206.97 373.08,204.74 368.42,204.04"/>
    </edge>
    <edge id=":1135_1" function="internal">
        <lane id=":1135_1_0" index="0" disallow="pedestrian tram rail_urban rail rail_electric rail_fast ship container cable_car subway aircraft wheelchair scooter drone" speed="13.89" length="38.49" width="3.50" shape="379.34,216.04 378.40,177.56"/>
    </edge>
    <edge id=":1135_2" function="internal">
        <lane id=":1135_2_0" index="0" disallow="pedestrian tram rail_urban rail rail_electric rail_fast ship container cable_car subway aircraft wheelchair scooter drone" speed="10.33" length="6.71" width="3.50" shape="382.84,215.95 381.82,209.32"/>
    </edge>
    <edge id=":1135_3" function="internal">
        <lane id=":1135_3_0" index="0" disallow="pedestrian tram rail_urban rail rail_electric rail_fast ship container cable_car subway aircraft wheelchair scooter drone" speed="13.89" length="38.49" width="3.50" shape="382.84,215.95 381.90,177.47"/>
    </edge>
    <edge id=":1135_8" function="internal">
        <lane id=":1135_8_0" index="0" disallow="pedestrian tram rail_urban rail rail_electric rail_fast ship container cable_car subway aircraft wheelchair scooter drone" speed="10.33" length="17.31" width="3.50" shape="381.82,209.32 381.79,209.14 379.03,204.30 374.56,201.44 368.37,200.54"/>
    </edge>
    <edge id=":1135_4" function="internal">
        <lane id=":1135_4_0" index="0" disallow="pedestrian tram rail_urban rail rail_electric rail_fast ship container cable_car subway aircraft wheelchair scooter drone" speed="13.89" length="38.49" width="3.50" shape="392.40,177.22 393.34,215.70"/>
        <lane id=":1135_4_1" index="1" disallow="pedestrian tram rail_urban rail rail_electric rail_fast ship container cable_car subway aircraft wheelchair scooter drone" speed="13.89" length="38.49" width="3.50" shape="388.90,177.30 389.84,215.78"/>
    </edge>
    <edge id=":1135_6" function="internal">
        <lane id=":1135_6_0" index="0" disallow="pedestrian tram rail_urban rail rail_electric rail_fast ship container cable_car subway aircraft wheelchair scooter drone" speed="8.82" length="17.53" width="3.50" shape="368.23,189.04 372.78,188.27 376.00,186.10 377.87,182.53 378.40,177.56"/>
        <lane id=":1135_6_1" index="1" disallow="pedestrian tram rail_urban rail rail_electric rail_fast ship container cable_car subway aircraft wheelchair scooter drone" speed="10.08" length="23.22" width="3.50" shape="368.27,192.54 374.37,191.53 378.67,188.69 381.18,184.00 381.90,177.47"/>
    </edge>
    <edge id=":1168_0" function="internal">
        <lane id=":1168_0_0" index="0" disallow="pedestrian tram rail_urban rail rail_electric rail_fast ship container cable_car subway aircraft wheelchair scooter drone" speed="9.13" length="18.61" width="3.50" shape="295.77,215.43,0.20 294.88,210.93,0.17 292.44,207.75,0.14 288.43,205.88,0.10 282.87,205.32,0.06"/>
    </edge>
    <edge id=":1168_1" function="internal">
        <lane id=":1168_1_0" index="0" disallow="pedestrian tram rail_urban rail rail_electric rail_fast ship container cable_car subway aircraft wheelchair scooter drone" speed="1.39" length="28.99" width="3.50" shape="311.91,208.39 282.92,208.82,0.06"/>
    </edge>
    <edge id=":1168_2" function="internal">
        <lane id=":1168_2_0" index="0" disallow="pedestrian tram rail_urban rail rail_electric rail_fast ship container cable_car subway aircraft wheelchair scooter drone" speed="9.10" length="6.01" width="3.50" shape="311.86,204.89 306.27,205.62,0.06 305.93,205.78,0.06"/>
    </edge>
    <edge id=":1168_3" function="internal">
        <lane id=":1168_3_0" index="0" disallow="pedestrian tram rail_urban rail rail_electric rail_fast ship container cable_car subway aircraft wheelchair scooter drone" speed="13.89" length="28.99" width="3.50" shape="311.86,204.89 282.87,205.32,0.06"/>
        <lane id=":1168_3_1" index="1" disallow="pedestrian tram rail_urban rail rail_electric rail_fast ship container cable_car subway aircraft wheelchair scooter drone" speed="13.89" length="28.99" width="3.50" shape="311.81,201.39 282.82,201.82,0.06"/>
    </edge>
    <edge id=":1168_7" function="internal">
        <lane id=":1168_7_0" index="0" disallow="pedestrian tram rail_urban rail rail_electric rail_fast ship container cable_car subway aircraft wheelchair scooter drone" speed="9.10" length="12.61" width="3.50" shape="305.93,205.78,0.06 302.31,207.60,0.11 299.98,210.85,0.15 299.27,215.35,0.20"/>
    </edge>
    <edge id=":1168_5" function="internal">
        <lane id=":1168_5_0" index="0" disallow="pedestrian tram rail_urban rail rail_electric rail_fast ship container cable_car subway aircraft wheelchair scooter drone" speed="13.89" length="29.00" width="3.50" shape="282.64,190.32,0.06 311.64,189.89"/>
        <lane id=":1168_5_1" index="1" disallow="pedestrian tram rail_urban rail rail_electric rail_fast ship container cable_car subway aircraft wheelchair scooter drone" speed="13.89" length="29.00" width="3.50" shape="282.70,193.82,0.06 311.69,193.39"/>
    </edge>
    <edge id=":1205_0" function="internal">
        <lane id=":1205_0_0" index="0" disallow="pedestrian tram rail_urban rail rail_electric rail_fast ship container cable_car subway aircraft wheelchair scooter drone" speed="10.98" length="13.29" width="3.50" shape="165.54,184.63 168.36,187.76,-0.00 171.10,189.99,-0.01 173.74,191.32,-0.01 176.29,191.77,-0.01"/>
    </edge>
    <edge id=":1205_1" function="internal">
        <lane id=":1205_1_0" index="0" disallow="pedestrian tram rail_urban rail rail_electric rail_fast ship container cable_car subway aircraft wheelchair scooter drone" speed="13.89" length="15.35" width="3.50" shape="165.54,184.63 168.24,188.23 169.64,191.06 170.17,194.19 170.25,198.71"/>
    </edge>
    <edge id=":1205_2" function="internal">
        <lane id=":1205_2_0" index="0" disallow="pedestrian tram rail_urban rail rail_electric rail_fast ship container cable_car subway aircraft wheelchair scooter drone" speed="12.12" length="5.57" width="3.50" shape="162.79,186.80 166.17,190.51,-0.00 166.61,190.85,-0.00"/>
    </edge>
    <edge id=":1205_3" function="internal">
        <lane id=":1205_3_0" index="0" disallow="pedestrian tram rail_urban rail rail_electric rail_fast ship container cable_car subway aircraft wheelchair scooter drone" speed="13.35" length="12.97" width="3.50" shape="162.79,186.80 165.06,189.85 166.24,192.24 166.68,194.89 166.75,198.71"/>
    </edge>
    <edge id=":1205_4" function="internal">
        <lane id=":1205_4_0" index="0" disallow="pedestrian tram rail_urban rail rail_electric rail_fast ship container cable_car subway aircraft wheelchair scooter drone" speed="12.12" length="10.87" width="3.50" shape="166.61,190.85,-0.00 169.54,193.15,-0.01 172.91,194.74,-0.01 176.29,195.27,-0.01"/>
    </edge>
    <edge id=":1221_0" function="internal">
        <lane id=":1221_0_0" index="0" disallow="pedestrian tram rail_urban rail rail_electric rail_fast ship container cable_car subway aircraft wheelchair scooter drone" speed="8.56" length="16.26" width="3.50" shape="143.50,348.05 142.81,343.32 140.98,339.98 138.03,338.01 133.95,337.42"/>
    </edge>
    <edge id=":1221_1" function="internal">
        <lane id=":1221_1_0" index="0" disallow="pedestrian tram rail_urban rail rail_electric rail_fast ship container cable_car subway aircraft wheelchair scooter drone" speed="13.89" length="25.11" width="3.50" shape="143.50,348.05 142.88,322.95">
            <param key="signalID" value="2022"/>
        </lane>
        <lane id=":1221_1_1" index="1" disallow="pedestrian tram rail_urban rail rail_electric rail_fast ship container cable_car subway aircraft wheelchair scooter drone" speed="13.89" length="25.11" width="3.50" shape="147.00,347.96 146.38,322.86">
            <param key="signalID" value="2022"/>
        </lane>
    </edge>
    <edge id=":1221_3" function="internal">
        <lane id=":1221_3_0" index="0" disallow="pedestrian tram rail_urban rail rail_electric rail_fast ship container cable_car subway aircraft wheelchair scooter drone" speed="10.98" length="11.13" width="3.50" shape="147.00,347.96 148.08,341.66,0.02 151.02,337.95,0.04">
            <param key="signalID" value="2020"/>
        </lane>
    </edge>
    <edge id=":1221_16" function="internal">
        <lane id=":1221_16_0" index="0" disallow="pedestrian tram rail_urban rail rail_electric rail_fast ship container cable_car subway aircraft wheelchair scooter drone" speed="10.98" length="16.51" width="3.50" shape="151.02,337.95,0.04 151.69,337.10,0.04 157.81,334.29,0.07 166.44,333.22,0.10">
            <param key="signalID" value="2020"/>
        </lane>
    </edge>
    <edge id=":1221_4" function="internal">
        <lane id=":1221_4_0" index="0" disallow="pedestrian tram rail_urban rail rail_electric rail_fast ship container cable_car subway aircraft wheelchair scooter drone" speed="1.39" length="32.57" width="3.50" shape="166.59,340.22,0.10 134.02,340.92"/>
    </edge>
    <edge id=":1221_5" function="internal">
        <lane id=":1221_5_0" index="0" disallow="pedestrian tram rail_urban rail rail_electric rail_fast ship container cable_car subway aircraft wheelchair scooter drone" speed="8.52" length="4.31" width="3.50" shape="166.52,336.72,0.10 162.47,337.48,0.07 162.32,337.59,0.07">
            <param key="signalID" value="2019"/>
        </lane>
    </edge>
    <edge id=":1221_6" function="internal">
        <lane id=":1221_6_0" index="0" disallow="pedestrian tram rail_urban rail rail_electric rail_fast ship container cable_car subway aircraft wheelchair scooter drone" speed="13.89" length="32.58" width="3.50" shape="166.52,336.72,0.10 133.95,337.42">
            <param key="signalID" value="2019"/>
        </lane>
    </edge>
    <edge id=":1221_7" function="internal">
        <lane id=":1221_7_0" index="0" disallow="pedestrian tram rail_urban rail rail_electric rail_fast ship container cable_car subway aircraft wheelchair scooter drone" speed="11.01" length="8.24" width="3.50" shape="166.52,336.72,0.10 158.30,336.04,0.07">
            <param key="signalID" value="2019"/>
        </lane>
    </edge>
    <edge id=":1221_17" function="internal">
        <lane id=":1221_17_0" index="0" disallow="pedestrian tram rail_urban rail rail_electric rail_fast ship container cable_car subway aircraft wheelchair scooter drone" speed="8.52" length="11.89" width="3.50" shape="162.32,337.59,0.07 159.62,339.56,0.05 157.96,342.97,0.03 157.50,347.70">
            <param key="signalID" value="2019"/>
        </lane>
    </edge>
    <edge id=":1221_18" function="internal">
        <lane id=":1221_18_0" index="0" disallow="pedestrian tram rail_urban rail rail_electric rail_fast ship container cable_car subway aircraft wheelchair scooter drone" speed="11.01" length="19.40" width="3.50" shape="158.30,336.04,0.07 157.84,336.00,0.07 151.59,333.45,0.04 147.77,329.07,0.02 146.38,322.86">
            <param key="signalID" value="2019"/>
        </lane>
    </edge>
    <edge id=":1221_8" function="internal">
        <lane id=":1221_8_0" index="0" disallow="pedestrian tram rail_urban rail rail_electric rail_fast ship container cable_car subway aircraft wheelchair scooter drone" speed="8.56" length="16.26" width="3.50" shape="156.88,322.60 157.58,327.32,0.03 159.40,330.66,0.05 162.36,332.63,0.07 166.44,333.22,0.10"/>
    </edge>
    <edge id=":1221_9" function="internal">
        <lane id=":1221_9_0" index="0" disallow="pedestrian tram rail_urban rail rail_electric rail_fast ship container cable_car subway aircraft wheelchair scooter drone" speed="13.89" length="25.11" width="3.50" shape="156.88,322.60 157.50,347.70">
            <param key="signalID" value="2020"/>
        </lane>
        <lane id=":1221_9_1" index="1" disallow="pedestrian tram rail_urban rail rail_electric rail_fast ship container cable_car subway aircraft wheelchair scooter drone" speed="13.89" length="25.11" width="3.50" shape="153.38,322.69 154.00,347.79">
            <param key="signalID" value="2020"/>
        </lane>
    </edge>
    <edge id=":1221_11" function="internal">
        <lane id=":1221_11_0" index="0" disallow="pedestrian tram rail_urban rail rail_electric rail_fast ship container cable_car subway aircraft wheelchair scooter drone" speed="10.98" length="11.11" width="3.50" shape="153.38,322.69 152.30,328.97 149.36,332.69">
            <param key="signalID" value="2021 2020"/>
        </lane>
    </edge>
    <edge id=":1221_19" function="internal">
        <lane id=":1221_19_0" index="0" disallow="pedestrian tram rail_urban rail rail_electric rail_fast ship container cable_car subway aircraft wheelchair scooter drone" speed="10.98" length="16.50" width="3.50" shape="149.36,332.69 148.70,333.52 142.58,336.34 133.95,337.42">
            <param key="signalID" value="2021 2020"/>
        </lane>
    </edge>
    <edge id=":1221_12" function="internal">
        <lane id=":1221_12_0" index="0" disallow="pedestrian tram rail_urban rail rail_electric rail_fast ship container cable_car subway aircraft wheelchair scooter drone" speed="1.39" length="32.58" width="3.50" shape="133.80,330.42 166.37,329.72,0.10"/>
    </edge>
    <edge id=":1221_13" function="internal">
        <lane id=":1221_13_0" index="0" disallow="pedestrian tram rail_urban rail rail_electric rail_fast ship container cable_car subway aircraft wheelchair scooter drone" speed="8.52" length="4.30" width="3.50" shape="133.87,333.92 137.91,333.16 138.06,333.05">
            <param key="signalID" value="2021 2022"/>
        </lane>
    </edge>
    <edge id=":1221_14" function="internal">
        <lane id=":1221_14_0" index="0" disallow="pedestrian tram rail_urban rail rail_electric rail_fast ship container cable_car subway aircraft wheelchair scooter drone" speed="13.89" length="32.58" width="3.50" shape="133.87,333.92 166.44,333.22,0.10">