<?xml version="1.0" encoding="UTF-8"?>

<!-- generated on 2026-04-25T12:20:57.758463+03:00 by Eclipse SUMO duarouter 1.26.0
<duarouterConfiguration xmlns:xsi="http://www.w3.org/2001/XMLSchema-instance" xsi:noNamespaceSchemaLocation="http://sumo.dlr.de/xsd/duarouterConfiguration.xsd">

    <input>
        <net-file value="carla_town10.net.xml"/>
        <route-files value="carla_town10_extreme.trips.xml"/>
    </input>

    <output>
        <output-file value="carla_town10_extreme.rou.xml"/>
    </output>

    <report>
        <ignore-errors value="true"/>
    </report>

</duarouterConfiguration>
-->

<routes xmlns:xsi="http://www.w3.org/2001/XMLSchema-instance" xsi:noNamespaceSchemaLocation="http://sumo.dlr.de/xsd/routes_file.xsd">
    <vehicle id="0" depart="0.00">
        <route edges="12 -9 -21 2 -11"/>
    </vehicle>
    <vehicle id="1" depart="0.15">
        <route edges="-20 9 -12 -14 19 5 4 -2"/>
    </vehicle>
    <vehicle id="2" depart="0.30">
        <route edges="19 -6 -22 14 13"/>
    </vehicle>
    <vehicle id="3" depart="0.45">
        <route edges="4 -2 21 20 -15 -7 2 1 -13"/>
    </vehicle>
    <vehicle id="4" depart="0.60">
        <route edges="-5 -18 -20 -21 2 -11"/>
    </vehicle>
    <vehicle id="5" depart="0.75">
        <route edges="-2 21 20 -15 -7 2 -11 -9"/>
    </vehicle>
    <vehicle id="6" depart="0.90">
        <route edges="-11 -12 -14 -15 6 -18"/>
    </vehicle>
    <vehicle id="7" depart="1.05">
        <route edges="13 -5 -18 -20 -21 2 1"/>
    </vehicle>
    <vehicle id="8" depart="1.20">
        <route edges="-2 -3 -22 -20 9 11"/>
    </vehicle>
    <vehicle id="9" depart="1.35">
        <route edges="20 -15 -7 2 -11"/>
    </vehicle>
    <vehicle id="10" depart="1.50">
        <route edges="20 14"/>
    </vehicle>
    <vehicle id="11" depart="1.65">
        <route edges="-22 -20 9 -12 -14 -15"/>
    </vehicle>
    <vehicle id="12" depart="1.80">
        <route edges="6 -18 14 13 -5 -6 -22"/>
    </vehicle>
    <vehicle id="13" depart="1.95">
        <route edges="-13"/>
    </vehicle>
    <vehicle id="14" depart="2.10">
        <route edges="21 20 19 -6 -22 -20 9 11"/>
    </vehicle>
    <vehicle id="15" depart="2.25">
        <route edges="20 19"/>
    </vehicle>
    <vehicle id="16" depart="2.40">
        <route edges="1 -13 -14 -20 9"/>
    </vehicle>
    <vehicle id="17" depart="2.55">
        <route edges="-3 -22 -20 -21 2 1"/>
    </vehicle>
    <vehicle id="18" depart="2.70">
        <route edges="21 20 -15 -7 2 1 -13 12"/>
    </vehicle>
    <vehicle id="19" depart="2.85">
        <route edges="4 -2 -3 -22 -20 9 11"/>
    </vehicle>
    <vehicle id="20" depart="3.00">
        <route edges="14 13 -5 -18 -20 9 -12"/>
    </vehicle>
    <vehicle id="21" depart="3.15">
        <route edges="-2 -3 -22 -20 -21"/>
    </vehicle>
    <vehicle id="22" depart="3.30">
        <route edges="-13 -14 19 5 4 -2"/>
    </vehicle>
    <vehicle id="23" depart="3.45">
        <route edges="-13 -14 -20"/>
    </vehicle>
    <vehicle id="24" depart="3.60">
        <route edges="12 -9 -21 -3"/>
    </vehicle>
    <vehicle id="25" depart="3.75">
        <route edges="-3 6 -18"/>
    </vehicle>
    <vehicle id="26" depart="3.90">
        <route edges="-20 -21 -3 6"/>
    </vehicle>
    <vehicle id="27" depart="4.05">
        <route edges="13 -5 -18 -20 -21 2 1 -13 12"/>
    </vehicle>
    <vehicle id="28" depart="4.20">
        <route edges="-15 -7 21 20 19"/>
    </vehicle>
    <vehicle id="29" depart="4.35">
        <route edges="-15 6 -18 -20 -21 -3"/>
    </vehicle>
    <vehicle id="30" depart="4.50">
        <route edges="9 11 1 -13 12"/>
    </vehicle>
    <vehicle id="31" depart="4.65">
        <route edges="1 -5 -18 14"/>
    </vehicle>
    <vehicle id="32" depart="4.80">
        <route edges="21 20 -15 -7 2"/>
    </vehicle>
    <vehicle id="33" depart="4.95">
        <route edges="-2 21 20 -15 -7 2 -11"/>
    </vehicle>
    <vehicle id="34" depart="5.10">
        <route edges="-21 2 -11 -12 -14 -20"/>
    </vehicle>
    <vehicle id="35" depart="5.25">
        <route edges="-18 -15 6"/>
    </vehicle>
    <vehicle id="36" depart="5.40">
        <route edges="4 -2 -3 -22 -20 -21"/>
    </vehicle>
    <vehicle id="37" depart="5.55">
        <route edges="13 -5"/>
    </vehicle>
    <vehicle id="38" depart="5.70">
        <route edges="5 4 -2 21 20 19 -6"/>
    </vehicle>
    <vehicle id="39" depart="5.85">
        <route edges="-20 9 -12 -14 19 5 4 -2"/>
    </vehicle>
    <vehicle id="40" depart="6.00">
        <route edges="1 -13 -14 -20"/>
    </vehicle>
    <vehicle id="41" depart="6.15">
        <route edges="11 1 -13 -14 19 5"/>
    </vehicle>
    <vehicle id="42" depart="6.30">
        <route edges="-5 -6 -22 19 5 4 -2"/>
    </vehicle>
    <vehicle id="43" depart="6.45">
        <route edges="9 -12 -14 -20 -21 2 -11 -9"/>
    </vehicle>
    <vehicle id="44" depart="6.60">
        <route edges="-13 -14 -20 9 -12"/>
    </vehicle>
    <vehicle id="45" depart="6.75">
        <route edges="-14 -20 -21 2 1 -13 12"/>
    </vehicle>
    <vehicle id="46" depart="6.90">
        <route edges="20 14 13 -5"/>
    </vehicle>
    <vehicle id="47" depart="7.05">
        <route edges="-12 -14 -20 -21 -3"/>
    </vehicle>
    <vehicle id="48" depart="7.20">
        <route edges="9 -12 -14 -20 -21 2 -11 -9"/>
    </vehicle>
    <vehicle id="49" depart="7.35">
        <route edges="9 -12 -14 19 5 4"/>
    </vehicle>
    <vehicle id="50" depart="7.50">
        <route edges="-11 -12 -14 19"/>
    </vehicle>
    <vehicle id="51" depart="7.65">
        <route edges="14 13 -5 -18 -20 -21 2 1"/>
    </vehicle>
    <vehicle id="52" depart="7.80">
        <route edges="-20 -21 2 1 -13 12"/>
    </vehicle>
    <vehicle id="53" depart="7.95">
        <route edges="-14 19 -6"/>
    </vehicle>
    <vehicle id="54" depart="8.10">
        <route edges="-6 -7 21 20 -15 6"/>
    </vehicle>
    <vehicle id="55" depart="8.25">
        <route edges="4 -2 -3 -22 -20"/>
    </vehicle>
    <vehicle id="56" depart="8.40">
        <route edges="-9 -21 2 1 -5 -18"/>
    </vehicle>
    <vehicle id="57" depart="8.55">
        <route edges="5 4"/>
    </vehicle>
    <vehicle id="58" depart="8.70">
        <route edges="-21 2 1 -13 12"/>
    </vehicle>
    <vehicle id="59" depart="8.85">
        <route edges="12 11 1 -13 -14 -15"/>
    </vehicle>
    <vehicle id="60" depart="9.00">
        <route edges="2 1"/>
    </vehicle>
    <vehicle id="61" depart="9.15">
        <route edges="2 -11 -9"/>
    </vehicle>
    <vehicle id="62" depart="9.30">
        <route edges="-11 -12 -14 19 -6 -22"/>
    </vehicle>
    <vehicle id="63" depart="9.45">
        <route edges="-11 -12 -14 -15 6"/>
    </vehicle>
    <vehicle id="64" depart="9.60">
        <route edges="4 -2 21"/>
    </vehicle>
    <vehicle id="65" depart="9.75">
        <route edges="-21 2 -11 -12"/>
    </vehicle>
    <vehicle id="66" depart="9.90">
        <route edges="4 -2 -3 6"/>
    </vehicle>
    <vehicle id="67" depart="10.05">
        <route edges="-13 -14 -15 -7"/>
    </vehicle>
    <vehicle id="68" depart="10.20">
        <route edges="-12 -14 -20 -21 2"/>
    </vehicle>
    <vehicle id="69" depart="10.35">
        <route edges="2 -11 -12 -14"/>
    </vehicle>
    <vehicle id="70" depart="10.50">
        <route edges="-7 2 1"/>
    </vehicle>
    <vehicle id="71" depart="10.65">
        <route edges="-20 9 -12 -14 19 5 4"/>
    </vehicle>
    <vehicle id="72" depart="10.80">
        <route edges="-5 -18"/>
    </vehicle>
    <vehicle id="73" depart="10.95">
        <route edges="1 -13 -14 19"/>
    </vehicle>
    <vehicle id="74" depart="11.10">
        <route edges="-18 -20 -21"/>
    </vehicle>
    <vehicle id="75" depart="11.25">
        <route edges="9 -12 -14 19 -6 -22 14 13"/>
    </vehicle>
    <vehicle id="76" depart="11.40">
        <route edges="-6 -7 2 -11 -9"/>
    </vehicle>
    <vehicle id="77" depart="11.55">
        <route edges="-14 19 5 4 -2"/>
    </vehicle>
    <vehicle id="78" depart="11.70">
        <route edges="-22 -20 9 11"/>
    </vehicle>
    <vehicle id="79" depart="11.85">
        <route edges="-2"/>
    </vehicle>
    <vehicle id="80" depart="12.00">
        <route edges="-12 -14 -20 -21 2 1 -13 12"/>
    </vehicle>
    <vehicle id="81" depart="12.15">
        <route edges="-2 21 20 19 5"/>
    </vehicle>
    <vehicle id="82" depart="12.30">
        <route edges="4 -2 -3 -22 -20 9 -12"/>
    </vehicle>
    <vehicle id="83" depart="12.45">
        <route edges="-2 21 20 14 13"/>
    </vehicle>
    <vehicle id="84" depart="12.60">
        <route edges="-18 -20 9 -12 -14"/>
    </vehicle>
    <vehicle id="85" depart="12.75">
        <route edges="6 -18 -20 -21 2 1"/>
    </vehicle>
    <vehicle id="86" depart="12.90">
        <route edges="-7 2"/>
    </vehicle>
    <vehicle id="87" depart="13.05">
        <route edges="20 -15 6 -18"/>
    </vehicle>
    <vehicle id="88" depart="13.20">
        <route edges="-13 -14 19 -6"/>
    </vehicle>
    <vehicle id="89" depart="13.35">
        <route edges="-5 -6 -7"/>
    </vehicle>
    <vehicle id="90" depart="13.50">
        <route edges="19 -6 -22 14 13"/>
    </vehicle>
    <vehicle id="91" depart="13.65">
        <route edges="9 11 1 -13"/>
    </vehicle>
    <vehicle id="92" depart="13.80">
        <route edges="-5 -6 -22"/>
    </vehicle>
    <vehicle id="93" depart="13.95">
        <route edges="4 -2"/>
    </vehicle>
    <vehicle id="94" depart="14.10">
        <route edges="-18 14 13 -5 -6"/>
    </vehicle>
    <vehicle id="95" depart="14.25">
        <route edges="-5 -18 -20"/>
    </vehicle>
    <vehicle id="96" depart="14.40">
        <route edges="-2 21 20 19 5"/>
    </vehicle>
    <vehicle id="97" depart="14.55">
        <route edges="-6 -22 19 5 4"/>
    </vehicle>
    <vehicle id="98" depart="14.70">
        <route edges="1 -13 -14 -20 9 -12"/>
    </vehicle>
    <vehicle id="99" depart="14.85">
        <route edges="9 -12 -14 -15 -7 21"/>
    </vehicle>
    <vehicle id="100" depart="15.00">
        <route edges="9 -12 -14 19 5"/>
    </vehicle>
    <vehicle id="101" depart="15.15">
        <route edges="21 20 -15"/>
    </vehicle>
    <vehicle id="102" depart="15.30">
        <route edges="-7 21 20 -15 6 -18"/>
    </vehicle>
    <vehicle id="103" depart="15.45">
        <route edges="-5 -18 -20 9 -12"/>
    </vehicle>
    <vehicle id="104" depart="15.60">
        <route edges="-3 -22 -20 9"/>
    </vehicle>
    <vehicle id="105" depart="15.75">
        <route edges="-20 -21 2"/>
    </vehicle>
    <vehicle id="106" depart="15.90">
        <route edges="-6 -22 14 13 -5"/>
    </vehicle>
    <vehicle id="107" depart="16.05">
        <route edges="6 -18 -20 9"/>
    </vehicle>
    <vehicle id="108" depart="16.20">
        <route edges="1 -13 -14 19"/>
    </vehicle>
    <vehicle id="109" depart="16.35">
        <route edges="-15 6 -18 -20 -21"/>
    </vehicle>
    <vehicle id="110" depart="16.50">
        <route edges="9 11"/>
    </vehicle>
    <vehicle id="111" depart="16.65">
        <route edges="1 -13 -14 19"/>
    </vehicle>
    <vehicle id="112" depart="16.80">
        <route edges="-12 -14 -20 9 11"/>
    </vehicle>
    <vehicle id="113" depart="16.95">
        <route edges="-9 -21 2 -11 -12 -14 -15 -7 21"/>
    </vehicle>
    <vehicle id="114" depart="17.10">
        <route edges="-15 6"/>
    </vehicle>
    <vehicle id="115" depart="17.25">
        <route edges="-13 -14 -15 6 -18"/>
    </vehicle>
    <vehicle id="116" depart="17.40">
        <route edges="11 1 -5 -18 14 13"/>
    </vehicle>
    <vehicle id="117" depart="17.55">
        <route edges="-2 -3 -22 -20 9 -12 -14"/>
    </vehicle>
    <vehicle id="118" depart="17.70">
        <route edges="4 -2"/>
    </vehicle>
    <vehicle id="119" depart="17.85">
        <route edges="11 1 -13 12"/>
    </vehicle>
    <vehicle id="120" depart="18.00">
        <route edges="-5 -18 -20 9 11"/>
    </vehicle>
    <vehicle id="121" depart="18.15">
        <route edges="-9 -21 -3 6"/>
    </vehicle>
    <vehicle id="122" depart="18.30">
        <route edges="-18 -20 9 -12 -14 19"/>
    </vehicle>
    <vehicle id="123" depart="18.45">
        <route edges="-2 21 20 14 13 -5"/>
    </vehicle>
    <vehicle id="124" depart="18.60">
        <route edges="13 -5 -18 -20 -21"/>
    </vehicle>
    <vehicle id="125" depart="18.75">
        <route edges="-21 2"/>
    </vehicle>
    <vehicle id="126" depart="18.90">
        <route edges="-13 -14 19 -6"/>
    </vehicle>
    <vehicle id="127" depart="19.05">
        <route edges="9"/>
    </vehicle>
    <vehicle id="128" depart="19.20">
        <route edges="-13 -14 -15 6 -18"/>
    </vehicle>
    <vehicle id="129" depart="19.35">
        <route edges="-20 -21 -3 6"/>
    </vehicle>
    <vehicle id="130" depart="19.50">
        <route edges="4"/>
    </vehicle>
    <vehicle id="131" depart="19.65">
        <route edges="-3 6 -18 -15"/>
    </vehicle>
    <vehicle id="132" depart="19.80">
        <route edges="21 20 14"/>
    </vehicle>
    <vehicle id="133" depart="19.95">
        <route edges="12 11 1 -13 -14 -20 9"/>
    </vehicle>
    <vehicle id="134" depart="20.10">
        <route edges="13 -5 -18 -20 -21 2 -11"/>
    </vehicle>
    <vehicle id="135" depart="20.25">
        <route edges="20 19 -6 -22 -20 -21"/>
    </vehicle>
    <vehicle id="136" depart="20.40">
        <route edges="13 -5 -18 -15 6"/>
    </vehicle>
    <vehicle id="137" depart="20.55">
        <route edges="-14"/>
    </vehicle>
    <vehicle id="138" depart="20.70">
        <route edges="-13 12 11 1"/>
    </vehicle>
    <vehicle id="139" depart="20.85">
        <route edges="-20 9 11"/>
    </vehicle>
    <vehicle id="140" depart="21.00">
        <route edges="19 -6 -22 14 13 -5 -18"/>
    </vehicle>
    <vehicle id="141" depart="21.15">
        <route edges="12 11 1 -13 -14 -20"/>
    </vehicle>
    <vehicle id="142" depart="21.30">
        <route edges="-7 21 20 19 5"/>
    </vehicle>
    <vehicle id="143" depart="21.45">
        <route edges="21 20 -15 -7 2 1 -13"/>
    </vehicle>
    <vehicle id="144" depart="21.60">
        <route edges="-5 -18 -20"/>
    </vehicle>
    <vehicle id="145" depart="21.75">
        <route edges="-11 -9 -21 2"/>
    </vehicle>
    <vehicle id="146" depart="21.90">
        <route edges="12 11 1 -13 -14 -20"/>
    </vehicle>
    <vehicle id="147" depart="22.05">
        <route edges="19 -6 -7 2 1"/>
    </vehicle>
    <vehicle id="148" depart="22.20">
        <route edges="-5 -18 -20 -21 2 -11"/>
    </vehicle>
    <vehicle id="149" depart="22.35">
        <route edges="-13 -14 19 5 4"/>
    </vehicle>
    <vehicle id="150" depart="22.50">
        <route edges="5 4 -2 21 20 -15 -7 2 1"/>
    </vehicle>
    <vehicle id="151" depart="22.65">
        <route edges="21 20 19 -6 -22 -20 9 11"/>
    </vehicle>
    <vehicle id="152" depart="22.80">
        <route edges="-15 -7 2 -11 -12 -14"/>
    </vehicle>
    <vehicle id="153" depart="22.95">
        <route edges="-21 2 -11 -12 -14 19 5"/>
    </vehicle>
    <vehicle id="154" depart="23.10">
        <route edges="20 19 5 4"/>
    </vehicle>
    <vehicle id="155" depart="23.25">
        <route edges="5 4 -2 -3 6 -18"/>
    </vehicle>
    <vehicle id="156" depart="23.40">
        <route edges="-2 21 20 -15 -7 2 1 -13"/>
    </vehicle>
    <vehicle id="157" depart="23.55">
        <route edges="2 -11 -12 -14 19 5 4"/>
    </vehicle>
    <vehicle id="158" depart="23.70">
        <route edges="-5 -18 -20 -21 2 1 -13 12"/>
    </vehicle>
    <vehicle id="159" depart="23.85">
        <route edges="-15 6"/>
    </vehicle>
    <vehicle id="160" depart="24.00">
        <route edges="4 -2 -3 -22 -20 9"/>
    </vehicle>
    <vehicle id="161" depart="24.15">
        <route edges="20 19 5 4"/>
    </vehicle>
    <vehicle id="162" depart="24.30">
        <route edges="-11 -12 -14 19"/>
    </vehicle>
    <vehicle id="163" depart="24.45">
        <route edges="-22 -20 -21 -3 6"/>
    </vehicle>
    <vehicle id="164" depart="24.60">
        <route edges="20 19 5 4"/>
    </vehicle>
    <vehicle id="165" depart="24.75">
        <route edges="20 19 -6 -22 -20"/>
    </vehicle>
    <vehicle id="166" depart="24.90">
        <route edges="20 -15 -7 2 -11 -12 -14"/>
    </vehicle>
    <vehicle id="167" depart="25.05">
        <route edges="4"/>
    </vehicle>
    <vehicle id="168" depart="25.20">
        <route edges="-2 21 20"/>
    </vehicle>
    <vehicle id="169" depart="25.35">
        <route edges="-6 -22 -20 -21"/>
    </vehicle>
    <vehicle id="170" depart="25.50">
        <route edges="20 19 5 4 -2"/>
    </vehicle>
    <vehicle id="171" depart="25.65">
        <route edges="-11 -12 -14 -15 6 -18"/>
    </vehicle>
    <vehicle id="172" depart="25.80">
        <route edges="-22 19 5 4"/>
    </vehicle>
    <vehicle id="173" depart="25.95">
        <route edges="9 -12 -14 -20"/>
    </vehicle>
    <vehicle id="174" depart="26.10">
        <route edges="12 11 1 -5"/>
    </vehicle>
    <vehicle id="175" depart="26.25">
        <route edges="9 11 1"/>
    </vehicle>
    <vehicle id="176" depart="26.40">
        <route edges="6 -18 -20 9 -12 -14"/>
    </vehicle>
    <vehicle id="177" depart="26.55">
        <route edges="9 -12 -14 -15"/>
    </vehicle>
    <vehicle id="178" depart="26.70">
        <route edges="6 -18 -20"/>
    </vehicle>
    <vehicle id="179" depart="26.85">
        <route edges="-14 19 -6"/>
    </vehicle>
    <vehicle id="180" depart="27.00">
        <route edges="19 -6 -22 -20 -21"/>
    </vehicle>
    <vehicle id="181" depart="27.15">
        <route edges="11 1 -13 12 -9"/>
    </vehicle>
    <vehicle id="182" depart="27.30">
        <route edges="-3 -22 -20 9 11"/>
    </vehicle>
    <vehicle id="183" depart="27.45">
        <route edges="-20 -21 -3 -22 14"/>
    </vehicle>
    <vehicle id="184" depart="27.60">
        <route edges="-11 -12 -14 19 5"/>
    </vehicle>
    <vehicle id="185" depart="27.75">
        <route edges="1 -13 -14 19"/>
    </vehicle>
    <vehicle id="186" depart="27.90">
        <route edges="19 -6 -22 14 13"/>
    </vehicle>
    <vehicle id="187" depart="28.05">
        <route edges="-3 -22 -20 9 -12"/>
    </vehicle>
    <vehicle id="188" depart="28.20">
        <route edges="13 -5 -6 -22"/>
    </vehicle>
    <vehicle id="189" depart="28.35">
        <route edges="-21 2 -11 -12 -14 -15 -7 21"/>
    </vehicle>
    <vehicle id="190" depart="28.50">
        <route edges="19 -6 -22 -20 -21"/>
    </vehicle>
    <vehicle id="191" depart="28.65">
        <route edges="-21 2 1 -5"/>
    </vehicle>
    <vehicle id="192" depart="28.80">
        <route edges="-5 -18 -20 -21"/>
    </vehicle>
    <vehicle id="193" depart="28.95">
        <route edges="-14 -20 -21 2 1 -5"/>
    </vehicle>
    <vehicle id="194" depart="29.10">
        <route edges="6 -18 14 13"/>
    </vehicle>
    <vehicle id="195" depart="29.25">
        <route edges="5 4 -2 21 20 -15 -7 2 1 -13 12"/>
    </vehicle>
    <vehicle id="196" depart="29.40">
        <route edges="-21 2 1"/>
    </vehicle>
    <vehicle id="197" depart="29.55">
        <route edges="-11 -9 -21"/>
    </vehicle>
    <vehicle id="198" depart="29.70">
        <route edges="-6 -22 -20 9 11"/>
    </vehicle>
    <vehicle id="199" depart="29.85">
        <route edges="13 -5 -6 -7"/>
    </vehicle>
    <vehicle id="200" depart="30.00">
        <route edges="-6 -22 14 13 -5 -18"/>
    </vehicle>
    <vehicle id="201" depart="30.15">
        <route edges="-7 21 20 19 5"/>
    </vehicle>
    <vehicle id="202" depart="30.30">
        <route edges="20 -15"/>
    </vehicle>
    <vehicle id="203" depart="30.45">
        <route edges="-13 12 -9"/>
    </vehicle>
    <vehicle id="204" depart="30.60">
        <route edges="12 -9 -21 -3 -22"/>
    </vehicle>
    <vehicle id="205" depart="30.75">
        <route edges="20 -15 -7 2"/>
    </vehicle>
    <vehicle id="206" depart="30.90">
        <route edges="13 -5 -6 -22 19 5 4 -2"/>
    </vehicle>
    <vehicle id="207" depart="31.05">
        <route edges="-18 -20 -21 2 -11"/>
    </vehicle>
    <vehicle id="208" depart="31.20">
        <route edges="-2 21 20 -15 -7"/>
    </vehicle>
    <vehicle id="209" depart="31.35">
        <route edges="21 20 -15 -7 2 1 -13"/>
    </vehicle>
    <vehicle id="210" depart="31.50">
        <route edges="-5 -18 -20 -21 2 1 -13 12"/>
    </vehicle>
    <vehicle id="211" depart="31.65">
        <route edges="-18 14"/>
    </vehicle>
    <vehicle id="212" depart="31.80">
        <route edges="-7 21 20 19 5 4 -2"/>
    </vehicle>
    <vehicle id="213" depart="31.95">
        <route edges="13 -5 -18 -20 -21 2 -11"/>
    </vehicle>
    <vehicle id="214" depart="32.10">
        <route edges="2"/>
    </vehicle>
    <vehicle id="215" depart="32.25">
        <route edges="-13 12 11 1 -5"/>
    </vehicle>
    <vehicle id="216" depart="32.40">
        <route edges="-15 6"/>
    </vehicle>
    <vehicle id="217" depart="32.55">
        <route edges="-9 -21 2 -11 -12"/>
    </vehicle>
    <vehicle id="218" depart="32.70">
        <route edges="-2 21"/>
    </vehicle>
    <vehicle id="219" depart="32.85">
        <route edges="-6 -7 21 20"/>
    </vehicle>
    <vehicle id="220" depart="33.00">
        <route edges="13 -5 -18 -20 9"/>
    </vehicle>
    <vehicle id="221" depart="33.15">
        <route edges="11 1 -13 -14 -15 6"/>
    </vehicle>
    <vehicle id="222" depart="33.30">
        <route edges="4 -2 21 20 -15 -7 2 1 -13 12"/>
    </vehicle>
    <vehicle id="223" depart="33.45">
        <route edges="19 -6 -7 2 -11 -9"/>
    </vehicle>
    <vehicle id="224" depart="33.60">
        <route edges="21 20 -15 -7 2 1"/>
    </vehicle>
    <vehicle id="225" depart="33.75">
        <route edges="5 4 -2 21 20 19"/>
    </vehicle>
    <vehicle id="226" depart="33.90">
        <route edges="-7 2 -11 -12 -14 -20"/>
    </vehicle>
    <vehicle id="227" depart="34.05">
        <route edges="-2 21 20 -15 -7 2 1 -13 12"/>
    </vehicle>
    <vehicle id="228" depart="34.20">
        <route edges="2 -11 -9"/>
    </vehicle>
    <vehicle id="229" depart="34.35">
        <route edges="12 11 1 -13 -14 -20"/>
    </vehicle>
    <vehicle id="230" depart="34.50">
        <route edges="-13 -14 -20 -21"/>
    </vehicle>
    <vehicle id="231" depart="34.65">
        <route edges="-20 -21"/>
    </vehicle>
    <vehicle id="232" depart="34.80">
        <route edges="1 -13 -14"/>
    </vehicle>
    <vehicle id="233" depart="34.95">
        <route edges="-2 21 20 14"/>
    </vehicle>
    <vehicle id="234" depart="35.10">
        <route edges="14 13 -5 -18 -20 9 -12"/>
    </vehicle>
    <vehicle id="235" depart="35.25">
        <route edges="-5 -18 -20 -21 2 1"/>
    </vehicle>
    <vehicle id="236" depart="35.40">
        <route edges="-5 -18"/>
    </vehicle>
    <vehicle id="237" depart="35.55">
        <route edges="-5 -6 -22 19 5"/>
    </vehicle>
    <vehicle id="238" depart="35.70">
        <route edges="11 1 -5 -18 14"/>
    </vehicle>
    <vehicle id="239" depart="35.85">
        <route edges="21 20 -15 -7 2"/>
    </vehicle>
    <vehicle id="240" depart="36.00">
        <route edges="-3 -22 -20 -21 2 -11"/>
    </vehicle>
    <vehicle id="241" depart="36.15">
        <route edges="-22 -20 -21 2"/>
    </vehicle>
    <vehicle id="242" depart="36.30">
        <route edges="21 20 -15 6"/>
    </vehicle>
    <vehicle id="243" depart="36.45">
        <route edges="-5 -6 -22 19"/>
    </vehicle>
    <vehicle id="244" depart="36.60">
        <route edges="1 -13 12 11"/>
    </vehicle>
    <vehicle id="245" depart="36.75">
        <route edges="-2"/>
    </vehicle>
    <vehicle id="246" depart="36.90">
        <route edges="-6 -7 2 -11"/>
    </vehicle>
    <vehicle id="247" depart="37.05">
        <route edges="-22 14"/>
    </vehicle>
    <vehicle id="248" depart="37.20">
        <route edges="-5 -18 -15"/>
    </vehicle>
    <vehicle id="249" depart="37.35">
        <route edges="-7 2 -11 -12 -14"/>
    </vehicle>
    <vehicle id="250" depart="37.50">
        <route edges="12 -9 -21 2 -11"/>
    </vehicle>
    <vehicle id="251" depart="37.65">
        <route edges="-5 -18 -20 -21 2 1"/>
    </vehicle>
    <vehicle id="252" depart="37.80">
        <route edges="-11 -9 -21 2 1 -13 12"/>
    </vehicle>
    <vehicle id="253" depart="37.95">
        <route edges="-14 19 -6"/>
    </vehicle>
    <vehicle id="254" depart="38.10">
        <route edges="-12 -14 -20 -21 -3"/>
    </vehicle>
    <vehicle id="255" depart="38.25">
        <route edges="-18 14 13 -5 -6 -22"/>
    </vehicle>
    <vehicle id="256" depart="38.40">
        <route edges="2 -11 -9 -21 -3"/>
    </vehicle>
    <vehicle id="257" depart="38.55">
        <route edges="2 -11 -12 -14 -15 -7 21"/>
    </vehicle>
    <vehicle id="258" depart="38.70">
        <route edges="-20 -21 2 1 -13"/>
    </vehicle>
    <vehicle id="259" depart="38.85">
        <route edges="-11 -9 -21 2 1"/>
    </vehicle>
    <vehicle id="260" depart="39.00">
        <route edges="9 -12 -14 19 -6 -22"/>
    </vehicle>
    <vehicle id="261" depart="39.15">
        <route edges="13 -5 -18 -20 -21 2"/>
    </vehicle>
    <vehicle id="262" depart="39.30">
        <route edges="13 -5 -18 -20 -21 2"/>
    </vehicle>
    <vehicle id="263" depart="39.45">
        <route edges="6 -18"/>
    </vehicle>
    <vehicle id="264" depart="39.60">
        <route edges="-11 -12 -14 -15"/>
    </vehicle>
    <vehicle id="265" depart="39.75">
        <route edges="-14 19 -6 -22 14 13"/>
    </vehicle>
    <vehicle id="266" depart="39.90">
        <route edges="1 -13 -14 19 5 4 -2"/>
    </vehicle>
    <vehicle id="267" depart="40.05">
        <route edges="14 13 -5 -18 -20 -21 2"/>
    </vehicle>
    <vehicle id="268" depart="40.20">
        <route edges="-15 -7 2 1 -13 12"/>
    </vehicle>
    <vehicle id="269" depart="40.35">
        <route edges="19 -6 -22 -20 9 -12 -14"/>
    </vehicle>
    <vehicle id="270" depart="40.50">
        <route edges="20 19 -6 -22 -20 9"/>
    </vehicle>
    <vehicle id="271" depart="40.65">
        <route edges="-14 -20 -21 2 -11"/>
    </vehicle>
    <vehicle id="272" depart="40.80">
        <route edges="-21 -3 -22 14 13"/>
    </vehicle>
    <vehicle id="273" depart="40.95">
        <route edges="6 -18 14 13 -5"/>
    </vehicle>
    <vehicle id="274" depart="41.10">
        <route edges="19 -6 -7 2 1 -13"/>
    </vehicle>
    <vehicle id="275" depart="41.25">
        <route edges="14 13 -5 -18 -20 -21 2 1 -13 12"/>
    </vehicle>
    <vehicle id="276" depart="41.40">
        <route edges="-13 -14 -20 -21 2"/>
    </vehicle>
    <vehicle id="277" depart="41.55">
        <route edges="21 20 19 -6 -22 -20 9 11"/>
    </vehicle>
    <vehicle id="278" depart="41.70">
        <route edges="-14 -20 9"/>
    </vehicle>
    <vehicle id="279" depart="41.85">
        <route edges="2 -11 -12 -14 19 -6 -22"/>
    </vehicle>
    <vehicle id="280" depart="42.00">
        <route edges="-5 -18 -20 -21 -3"/>
    </vehicle>
    <vehicle id="281" depart="42.15">
        <route edges="-9 -21 -3 -22"/>
    </vehicle>
    <vehicle id="282" depart="42.30">
        <route edges="21"/>
    </vehicle>
    <vehicle id="283" depart="42.45">
        <route edges="-13 -14 -15 6"/>
    </vehicle>
    <vehicle id="284" depart="42.60">
        <route edges="12 11 1 -13 -14 -15 -7 21"/>
    </vehicle>
    <vehicle id="285" depart="42.75">
        <route edges="14 13 -5 -6"/>
    </vehicle>
    <vehicle id="286" depart="42.90">
        <route edges="19 -6 -22 -20 9"/>
    </vehicle>
    <vehicle id="287" depart="43.05">
        <route edges="-20 9 -12 -14 -15 -7 21 20"/>
    </vehicle>
    <vehicle id="288" depart="43.20">
        <route edges="1 -13 -14 -15 -7"/>
    </vehicle>
    <vehicle id="289" depart="43.35">
        <route edges="-6 -22 19"/>
    </vehicle>
    <vehicle id="290" depart="43.50">
        <route edges="-20 9 -12 -14 -15 -7 21"/>
    </vehicle>
    <vehicle id="291" depart="43.65">
        <route edges="21 20 -15 -7 2 1 -13"/>
    </vehicle>
    <vehicle id="292" depart="43.80">
        <route edges="4 -2"/>
    </vehicle>
    <vehicle id="293" depart="43.95">
        <route edges="-7 2 1 -13 12"/>
    </vehicle>
    <vehicle id="294" depart="44.10">
        <route edges="-3 -22 -20 -21 2 -11"/>
    </vehicle>
    <vehicle id="295" depart="44.25">
        <route edges="21 20 -15 6 -18"/>
    </vehicle>
    <vehicle id="296" depart="44.40">
        <route edges="-18 -15 -7 21 20"/>
    </vehicle>
    <vehicle id="297" depart="44.55">
        <route edges="-22 19 5 4"/>
    </vehicle>
    <vehicle id="298" depart="44.70">
        <route edges="14 13 -5 -18 -20"/>
    </vehicle>
    <vehicle id="299" depart="44.85">
        <route edges="-11 -12 -14 -15 6"/>
    </vehicle>
    <vehicle id="300" depart="45.00">
        <route edges="-13 -14 19"/>
    </vehicle>
    <vehicle id="301" depart="45.15">
        <route edges="-7 2"/>
    </vehicle>
    <vehicle id="302" depart="45.30">
        <route edges="14 13"/>
    </vehicle>
    <vehicle id="303" depart="45.45">
        <route edges="-7 21 20"/>
    </vehicle>
    <vehicle id="304" depart="45.60">
        <route edges="-13 -14 19 5 4 -2"/>
    </vehicle>
    <vehicle id="305" depart="45.75">
        <route edges="14 13 -5 -18 -20 -21"/>
    </vehicle>
    <vehicle id="306" depart="45.90">
        <route edges="11 1 -13 -14 -15 -7"/>
    </vehicle>
    <vehicle id="307" depart="46.05">
        <route edges="-9 -21 2 1 -5"/>
    </vehicle>
    <vehicle id="308" depart="46.20">
        <route edges="19 -6 -22"/>
    </vehicle>
    <vehicle id="309" depart="46.35">
        <route edges="14 13 -5 -18 -20"/>
    </vehicle>
    <vehicle id="310" depart="46.50">
        <route edges="-20 9 -12 -14"/>
    </vehicle>
    <vehicle id="311" depart="46.65">
        <route edges="-18 -20 9 -12 -14"/>
    </vehicle>
    <vehicle id="312" depart="46.80">
        <route edges="1 -13 -14 -20 -21 2"/>
    </vehicle>
    <vehicle id="313" depart="46.95">