<?xml version='1.0' encoding='UTF-8'?>
<types>
  <type id="freeway" numLanes="4" speed="27.78" />
  <type id="freeway_accel" numLanes="5" speed="27.78" />
  <type id="service" numLanes="2" speed="11.11" />
  <type id="ramp" numLanes="1" speed="19.44" />
  <type id="arterial" numLanes="3" speed="5.56" />
  <type id="cross" numLanes="2" speed="3.61" />
  <type id="feeder" numLanes="3" speed="13.89" />
</types>