<?xml version='1.0' encoding='UTF-8'?>
<connections>
  <connection from="svc_E_s1" to="svc_E_s2" fromLane="0" toLane="0" />
  <connection from="svc_E_s1" to="svc_E_s2" fromLane="1" toLane="1" />
  <connection from="svc_E_s1" to="merge_E1" fromLane="0" toLane="0" />
  <connection from="svc_E_s2" to="svc_E_s3" fromLane="0" toLane="0" />
  <connection from="svc_E_s2" to="svc_E_s3" fromLane="1" toLane="1" />
  <connection from="svc_E_s2" to="merge_E2" fromLane="0" toLane="0" />
  <connection from="svc_W_s1" to="svc_W_s2" fromLane="0" toLane="0" />
  <connection from="svc_W_s1" to="svc_W_s2" fromLane="1" toLane="1" />
  <connection from="svc_W_s1" to="merge_W1" fromLane="0" toLane="0" />
  <connection from="svc_W_s2" to="svc_W_s3" fromLane="0" toLane="0" />
  <connection from="svc_W_s2" to="svc_W_s3" fromLane="1" toLane="1" />
  <connection from="svc_W_s2" to="merge_W2" fromLane="0" toLane="0" />
  <connection from="hwy_E_s1" to="hwy_E_s1_accel" fromLane="0" toLane="1" />
  <connection from="hwy_E_s1" to="hwy_E_s1_accel" fromLane="1" toLane="2" />
  <connection from="hwy_E_s1" to="hwy_E_s1_accel" fromLane="2" toLane="3" />
  <connection from="hwy_E_s1" to="hwy_E_s1_accel" fromLane="3" toLane="4" />
  <connection from="merge_E1" to="hwy_E_s1_accel" fromLane="0" toLane="0" />
  <connection from="hwy_E_s2" to="hwy_E_s2_accel" fromLane="0" toLane="1" />
  <connection from="hwy_E_s2" to="hwy_E_s2_accel" fromLane="1" toLane="2" />
  <connection from="hwy_E_s2" to="hwy_E_s2_accel" fromLane="2" toLane="3" />
  <connection from="hwy_E_s2" to="hwy_E_s2_accel" fromLane="3" toLane="4" />
  <connection from="merge_E2" to="hwy_E_s2_accel" fromLane="0" toLane="0" />
  <connection from="hwy_W_s1" to="hwy_W_s1_accel" fromLane="0" toLane="1" />
  <connection from="hwy_W_s1" to="hwy_W_s1_accel" fromLane="1" toLane="2" />
  <connection from="hwy_W_s1" to="hwy_W_s1_accel" fromLane="2" toLane="3" />
  <connection from="hwy_W_s1" to="hwy_W_s1_accel" fromLane="3" toLane="4" />
  <connection from="merge_W1" to="hwy_W_s1_accel" fromLane="0" toLane="0" />
  <connection from="hwy_W_s2" to="hwy_W_s2_accel" fromLane="0" toLane="1" />
  <connection from="hwy_W_s2" to="hwy_W_s2_accel" fromLane="1" toLane="2" />
  <connection from="hwy_W_s2" to="hwy_W_s2_accel" fromLane="2" toLane="3" />
  <connection from="hwy_W_s2" to="hwy_W_s2_accel" fromLane="3" toLane="4" />
  <connection from="merge_W2" to="hwy_W_s2_accel" fromLane="0" toLane="0" />
  <connection from="hwy_E_s1_accel" to="hwy_E_s2" fromLane="1" toLane="0" />
  <connection from="hwy_E_s1_accel" to="hwy_E_s2" fromLane="2" toLane="1" />
  <connection from="hwy_E_s1_accel" to="hwy_E_s2" fromLane="3" toLane="2" />
  <connection from="hwy_E_s1_accel" to="hwy_E_s2" fromLane="4" toLane="3" />
  <connection from="hwy_E_s2_accel" to="hwy_E_s3" fromLane="1" toLane="0" />
  <connection from="hwy_E_s2_accel" to="hwy_E_s3" fromLane="2" toLane="1" />
  <connection from="hwy_E_s2_accel" to="hwy_E_s3" fromLane="3" toLane="2" />
  <connection from="hwy_E_s2_accel" to="hwy_E_s3" fromLane="4" toLane="3" />
  <connection from="hwy_W_s1_accel" to="hwy_W_s2" fromLane="1" toLane="0" />
  <connection from="hwy_W_s1_accel" to="hwy_W_s2" fromLane="2" toLane="1" />
  <connection from="hwy_W_s1_accel" to="hwy_W_s2" fromLane="3" toLane="2" />
  <connection from="hwy_W_s1_accel" to="hwy_W_s2" fromLane="4" toLane="3" />
  <connection from="hwy_W_s2_accel" to="hwy_W_s3" fromLane="1" toLane="0" />
  <connection from="hwy_W_s2_accel" to="hwy_W_s3" fromLane="2" toLane="1" />
  <connection from="hwy_W_s2_accel" to="hwy_W_s3" fromLane="3" toLane="2" />
  <connection from="hwy_W_s2_accel" to="hwy_W_s3" fromLane="4" toLane="3" />
  <connection from="hwy_E_s3" to="feed_E" fromLane="1" toLane="0" />
  <connection from="hwy_E_s3" to="feed_E" fromLane="2" toLane="1" />
  <connection from="hwy_E_s3" to="feed_E" fromLane="3" toLane="2" />
  <connection from="feed_W" to="hwy_W_s1" fromLane="0" toLane="1" />
  <connection from="feed_W" to="hwy_W_s1" fromLane="1" toLane="2" />
  <connection from="feed_W" to="hwy_W_s1" fromLane="2" toLane="3" />
</connections>