<?xml version='1.0' encoding='UTF-8'?>
<net xmlns:xsi="http://www.w3.org/2001/XMLSchema-instance" version="1.20" junctionCornerDetail="5" limitTurnSpeed="5.50" xsi:noNamespaceSchemaLocation="http://sumo.dlr.de/xsd/net_file.xsd">

    <location netOffset="1500.00,500.00" convBoundary="0.00,0.00,5700.00,1500.00" origBoundary="-1500.00,-500.00,4200.00,1000.00" projParameter="!" />

    <type id="arterial" numLanes="3" speed="5.56" />
    <type id="cross" numLanes="2" speed="3.61" />
    <type id="feeder" numLanes="3" speed="13.89" />
    <type id="freeway" numLanes="4" speed="27.78" />
    <type id="freeway_accel" numLanes="5" speed="27.78" />
    <type id="ramp" numLanes="1" speed="19.44" />
    <type id="service" numLanes="2" speed="11.11" />

    <edge id=":A0_0" function="internal">
        <lane id=":A0_0_0" index="0" speed="4.58" length="9.03" shape="3795.20,513.60 3794.85,511.15 3793.80,509.40 3792.05,508.35 3789.60,508.00" />
    </edge>
    <edge id=":A0_1" function="internal">
        <lane id=":A0_1_0" index="0" speed="3.61" length="27.20" shape="3795.20,513.60 3795.20,486.40" />
        <lane id=":A0_1_1" index="1" speed="3.61" length="27.20" shape="3798.40,513.60 3798.40,486.40" />
    </edge>
    <edge id=":A0_3" function="internal">
        <lane id=":A0_3_0" index="0" speed="4.58" length="6.30" shape="3798.40,513.60 3799.11,507.34" />
    </edge>
    <edge id=":A0_18" function="internal">
        <lane id=":A0_18_0" index="0" speed="4.58" length="15.70" shape="3799.11,507.34 3799.15,506.95 3801.40,502.20 3805.15,499.35 3810.40,498.40" />
    </edge>
    <edge id=":A0_4" function="internal">
        <lane id=":A0_4_0" index="0" speed="4.58" length="9.03" shape="3810.40,508.00 3807.95,508.35 3806.20,509.40 3805.15,511.15 3804.80,513.60" />
    </edge>
    <edge id=":A0_5" function="internal">
        <lane id=":A0_5_0" index="0" speed="5.56" length="20.80" shape="3810.40,508.00 3789.60,508.00" />
        <lane id=":A0_5_1" index="1" speed="5.56" length="20.80" shape="3810.40,504.80 3789.60,504.80" />
        <lane id=":A0_5_2" index="2" speed="5.56" length="20.80" shape="3810.40,501.60 3789.60,501.60" />
    </edge>
    <edge id=":A0_8" function="internal">
        <lane id=":A0_8_0" index="0" speed="4.58" length="4.01" shape="3810.40,501.60 3806.45,500.89" />
    </edge>
    <edge id=":A0_19" function="internal">
        <lane id=":A0_19_0" index="0" speed="4.58" length="17.98" shape="3806.45,500.89 3805.15,500.65 3801.40,497.80 3799.15,493.05 3798.40,486.40" />
    </edge>
    <edge id=":A0_9" function="internal">
        <lane id=":A0_9_0" index="0" speed="4.58" length="9.03" shape="3804.80,486.40 3805.15,488.85 3806.20,490.60 3807.95,491.65 3810.40,492.00" />
    </edge>
    <edge id=":A0_10" function="internal">
        <lane id=":A0_10_0" index="0" speed="3.61" length="27.20" shape="3804.80,486.40 3804.80,513.60" />
        <lane id=":A0_10_1" index="1" speed="3.61" length="27.20" shape="3801.60,486.40 3801.60,513.60" />
    </edge>
    <edge id=":A0_12" function="internal">
        <lane id=":A0_12_0" index="0" speed="4.58" length="6.30" shape="3801.60,486.40 3800.89,492.66" />
    </edge>
    <edge id=":A0_20" function="internal">
        <lane id=":A0_20_0" index="0" speed="4.58" length="15.70" shape="3800.89,492.66 3800.85,493.05 3798.60,497.80 3794.85,500.65 3789.60,501.60" />
    </edge>
    <edge id=":A0_13" function="internal">
        <lane id=":A0_13_0" index="0" speed="4.58" length="9.03" shape="3789.60,492.00 3792.05,491.65 3793.80,490.60 3794.85,488.85 3795.20,486.40" />
    </edge>
    <edge id=":A0_14" function="internal">
        <lane id=":A0_14_0" index="0" speed="5.56" length="20.80" shape="3789.60,492.00 3810.40,492.00" />
        <lane id=":A0_14_1" index="1" speed="5.56" length="20.80" shape="3789.60,495.20 3810.40,495.20" />
        <lane id=":A0_14_2" index="2" speed="5.56" length="20.80" shape="3789.60,498.40 3810.40,498.40" />
    </edge>
    <edge id=":A0_17" function="internal">
        <lane id=":A0_17_0" index="0" speed="4.58" length="4.01" shape="3789.60,498.40 3793.55,499.11" />
    </edge>
    <edge id=":A0_21" function="internal">
        <lane id=":A0_21_0" index="0" speed="4.58" length="17.98" shape="3793.55,499.11 3794.85,499.35 3798.60,502.20 3800.85,506.95 3801.60,513.60" />
    </edge>
    <edge id=":A1_0" function="internal">
        <lane id=":A1_0_0" index="0" speed="4.58" length="9.03" shape="3795.20,1013.60 3794.85,1011.15 3793.80,1009.40 3792.05,1008.35 3789.60,1008.00" />
    </edge>
    <edge id=":A1_1" function="internal">
        <lane id=":A1_1_0" index="0" speed="3.61" length="27.20" shape="3795.20,1013.60 3795.20,986.40" />
        <lane id=":A1_1_1" index="1" speed="3.61" length="27.20" shape="3798.40,1013.60 3798.40,986.40" />
    </edge>
    <edge id=":A1_3" function="internal">
        <lane id=":A1_3_0" index="0" speed="4.58" length="6.30" shape="3798.40,1013.60 3799.11,1007.34" />
    </edge>
    <edge id=":A1_18" function="internal">
        <lane id=":A1_18_0" index="0" speed="4.58" length="15.70" shape="3799.11,1007.34 3799.15,1006.95 3801.40,1002.20 3805.15,999.35 3810.40,998.40" />
    </edge>
    <edge id=":A1_4" function="internal">
        <lane id=":A1_4_0" index="0" speed="4.58" length="9.03" shape="3810.40,1008.00 3807.95,1008.35 3806.20,1009.40 3805.15,1011.15 3804.80,1013.60" />
    </edge>
    <edge id=":A1_5" function="internal">
        <lane id=":A1_5_0" index="0" speed="5.56" length="20.80" shape="3810.40,1008.00 3789.60,1008.00" />
        <lane id=":A1_5_1" index="1" speed="5.56" length="20.80" shape="3810.40,1004.80 3789.60,1004.80" />
        <lane id=":A1_5_2" index="2" speed="5.56" length="20.80" shape="3810.40,1001.60 3789.60,1001.60" />
    </edge>
    <edge id=":A1_8" function="internal">
        <lane id=":A1_8_0" index="0" speed="4.58" length="4.01" shape="3810.40,1001.60 3806.45,1000.89" />
    </edge>
    <edge id=":A1_19" function="internal">
        <lane id=":A1_19_0" index="0" speed="4.58" length="17.98" shape="3806.45,1000.89 3805.15,1000.65 3801.40,997.80 3799.15,993.05 3798.40,986.40" />
    </edge>
    <edge id=":A1_9" function="internal">
        <lane id=":A1_9_0" index="0" speed="4.58" length="9.03" shape="3804.80,986.40 3805.15,988.85 3806.20,990.60 3807.95,991.65 3810.40,992.00" />
    </edge>
    <edge id=":A1_10" function="internal">
        <lane id=":A1_10_0" index="0" speed="3.61" length="27.20" shape="3804.80,986.40 3804.80,1013.60" />
        <lane id=":A1_10_1" index="1" speed="3.61" length="27.20" shape="3801.60,986.40 3801.60,1013.60" />
    </edge>
    <edge id=":A1_12" function="internal">
        <lane id=":A1_12_0" index="0" speed="4.58" length="6.30" shape="3801.60,986.40 3800.89,992.66" />
    </edge>
    <edge id=":A1_20" function="internal">
        <lane id=":A1_20_0" index="0" speed="4.58" length="15.70" shape="3800.89,992.66 3800.85,993.05 3798.60,997.80 3794.85,1000.65 3789.60,1001.60" />
    </edge>
    <edge id=":A1_13" function="internal">
        <lane id=":A1_13_0" index="0" speed="4.58" length="9.03" shape="3789.60,992.00 3792.05,991.65 3793.80,990.60 3794.85,988.85 3795.20,986.40" />
    </edge>
    <edge id=":A1_14" function="internal">
        <lane id=":A1_14_0" index="0" speed="5.56" length="20.80" shape="3789.60,992.00 3810.40,992.00" />
        <lane id=":A1_14_1" index="1" speed="5.56" length="20.80" shape="3789.60,995.20 3810.40,995.20" />
        <lane id=":A1_14_2" index="2" speed="5.56" length="20.80" shape="3789.60,998.40 3810.40,998.40" />
    </edge>
    <edge id=":A1_17" function="internal">
        <lane id=":A1_17_0" index="0" speed="4.58" length="4.01" shape="3789.60,998.40 3793.55,999.11" />
    </edge>
    <edge id=":A1_21" function="internal">
        <lane id=":A1_21_0" index="0" speed="4.58" length="17.98" shape="3793.55,999.11 3794.85,999.35 3798.60,1002.20 3800.85,1006.95 3801.60,1013.60" />
    </edge>
    <edge id=":B0_0" function="internal">
        <lane id=":B0_0_0" index="0" speed="4.58" length="9.03" shape="4495.20,513.60 4494.85,511.15 4493.80,509.40 4492.05,508.35 4489.60,508.00" />
    </edge>
    <edge id=":B0_1" function="internal">
        <lane id=":B0_1_0" index="0" speed="3.61" length="27.20" shape="4495.20,513.60 4495.20,486.40" />
        <lane id=":B0_1_1" index="1" speed="3.61" length="27.20" shape="4498.40,513.60 4498.40,486.40" />
    </edge>
    <edge id=":B0_3" function="internal">
        <lane id=":B0_3_0" index="0" speed="4.58" length="6.30" shape="4498.40,513.60 4499.11,507.34" />
    </edge>
    <edge id=":B0_18" function="internal">
        <lane id=":B0_18_0" index="0" speed="4.58" length="15.70" shape="4499.11,507.34 4499.15,506.95 4501.40,502.20 4505.15,499.35 4510.40,498.40" />
    </edge>
    <edge id=":B0_4" function="internal">
        <lane id=":B0_4_0" index="0" speed="4.58" length="9.03" shape="4510.40,508.00 4507.95,508.35 4506.20,509.40 4505.15,511.15 4504.80,513.60" />
    </edge>
    <edge id=":B0_5" function="internal">
        <lane id=":B0_5_0" index="0" speed="5.56" length="20.80" shape="4510.40,508.00 4489.60,508.00" />
        <lane id=":B0_5_1" index="1" speed="5.56" length="20.80" shape="4510.40,504.80 4489.60,504.80" />
        <lane id=":B0_5_2" index="2" speed="5.56" length="20.80" shape="4510.40,501.60 4489.60,501.60" />
    </edge>
    <edge id=":B0_8" function="internal">
        <lane id=":B0_8_0" index="0" speed="4.58" length="4.01" shape="4510.40,501.60 4506.45,500.89" />
    </edge>
    <edge id=":B0_19" function="internal">
        <lane id=":B0_19_0" index="0" speed="4.58" length="17.98" shape="4506.45,500.89 4505.15,500.65 4501.40,497.80 4499.15,493.05 4498.40,486.40" />
    </edge>
    <edge id=":B0_9" function="internal">
        <lane id=":B0_9_0" index="0" speed="4.58" length="9.03" shape="4504.80,486.40 4505.15,488.85 4506.20,490.60 4507.95,491.65 4510.40,492.00" />
    </edge>
    <edge id=":B0_10" function="internal">
        <lane id=":B0_10_0" index="0" speed="3.61" length="27.20" shape="4504.80,486.40 4504.80,513.60" />
        <lane id=":B0_10_1" index="1" speed="3.61" length="27.20" shape="4501.60,486.40 4501.60,513.60" />
    </edge>
    <edge id=":B0_12" function="internal">
        <lane id=":B0_12_0" index="0" speed="4.58" length="6.30" shape="4501.60,486.40 4500.89,492.66" />
    </edge>
    <edge id=":B0_20" function="internal">
        <lane id=":B0_20_0" index="0" speed="4.58" length="15.70" shape="4500.89,492.66 4500.85,493.05 4498.60,497.80 4494.85,500.65 4489.60,501.60" />
    </edge>
    <edge id=":B0_13" function="internal">
        <lane id=":B0_13_0" index="0" speed="4.58" length="9.03" shape="4489.60,492.00 4492.05,491.65 4493.80,490.60 4494.85,488.85 4495.20,486.40" />
    </edge>
    <edge id=":B0_14" function="internal">
        <lane id=":B0_14_0" index="0" speed="5.56" length="20.80" shape="4489.60,492.00 4510.40,492.00" />
        <lane id=":B0_14_1" index="1" speed="5.56" length="20.80" shape="4489.60,495.20 4510.40,495.20" />
        <lane id=":B0_14_2" index="2" speed="5.56" length="20.80" shape="4489.60,498.40 4510.40,498.40" />
    </edge>
    <edge id=":B0_17" function="internal">
        <lane id=":B0_17_0" index="0" speed="4.58" length="4.01" shape="4489.60,498.40 4493.55,499.11" />
    </edge>
    <edge id=":B0_21" function="internal">
        <lane id=":B0_21_0" index="0" speed="4.58" length="17.98" shape="4493.55,499.11 4494.85,499.35 4498.60,502.20 4500.85,506.95 4501.60,513.60" />
    </edge>
    <edge id=":B1_0" function="internal">
        <lane id=":B1_0_0" index="0" speed="4.58" length="9.03" shape="4495.20,1013.60 4494.85,1011.15 4493.80,1009.40 4492.05,1008.35 4489.60,1008.00" />
    </edge>
    <edge id=":B1_1" function="internal">
        <lane id=":B1_1_0" index="0" speed="3.61" length="27.20" shape="4495.20,1013.60 4495.20,986.40" />
        <lane id=":B1_1_1" index="1" speed="3.61" length="27.20" shape="4498.40,1013.60 4498.40,986.40" />
    </edge>
    <edge id=":B1_3" function="internal">
        <lane id=":B1_3_0" index="0" speed="4.58" length="6.30" shape="4498.40,1013.60 4499.11,1007.34" />
    </edge>
    <edge id=":B1_18" function="internal">
        <lane id=":B1_18_0" index="0" speed="4.58" length="15.70" shape="4499.11,1007.34 4499.15,1006.95 4501.40,1002.20 4505.15,999.35 4510.40,998.40" />
    </edge>
    <edge id=":B1_4" function="internal">
        <lane id=":B1_4_0" index="0" speed="4.58" length="9.03" shape="4510.40,1008.00 4507.95,1008.35 4506.20,1009.40 4505.15,1011.15 4504.80,1013.60" />
    </edge>
    <edge id=":B1_5" function="internal">
        <lane id=":B1_5_0" index="0" speed="5.56" length="20.80" shape="4510.40,1008.00 4489.60,1008.00" />
        <lane id=":B1_5_1" index="1" speed="5.56" length="20.80" shape="4510.40,1004.80 4489.60,1004.80" />
        <lane id=":B1_5_2" index="2" speed="5.56" length="20.80" shape="4510.40,1001.60 4489.60,1001.60" />
    </edge>
    <edge id=":B1_8" function="internal">
        <lane id=":B1_8_0" index="0" speed="4.58" length="4.01" shape="4510.40,1001.60 4506.45,1000.89" />
    </edge>
    <edge id=":B1_19" function="internal">
        <lane id=":B1_19_0" index="0" speed="4.58" length="17.98" shape="4506.45,1000.89 4505.15,1000.65 4501.40,997.80 4499.15,993.05 4498.40,986.40" />
    </edge>
    <edge id=":B1_9" function="internal">
        <lane id=":B1_9_0" index="0" speed="4.58" length="9.03" shape="4504.80,986.40 4505.15,988.85 4506.20,990.60 4507.95,991.65 4510.40,992.00" />
    </edge>
    <edge id=":B1_10" function="internal">
        <lane id=":B1_10_0" index="0" speed="3.61" length="27.20" shape="4504.80,986.40 4504.80,1013.60" />
        <lane id=":B1_10_1" index="1" speed="3.61" length="27.20" shape="4501.60,986.40 4501.60,1013.60" />
    </edge>
    <edge id=":B1_12" function="internal">
        <lane id=":B1_12_0" index="0" speed="4.58" length="6.30" shape="4501.60,986.40 4500.89,992.66" />
    </edge>
    <edge id=":B1_20" function="internal">
        <lane id=":B1_20_0" index="0" speed="4.58" length="15.70" shape="4500.89,992.66 4500.85,993.05 4498.60,997.80 4494.85,1000.65 4489.60,1001.60" />
    </edge>
    <edge id=":B1_13" function="internal">
        <lane id=":B1_13_0" index="0" speed="4.58" length="9.03" shape="4489.60,992.00 4492.05,991.65 4493.80,990.60 4494.85,988.85 4495.20,986.40" />
    </edge>
    <edge id=":B1_14" function="internal">
        <lane id=":B1_14_0" index="0" speed="5.56" length="20.80" shape="4489.60,992.00 4510.40,992.00" />
        <lane id=":B1_14_1" index="1" speed="5.56" length="20.80" shape="4489.60,995.20 4510.40,995.20" />
        <lane id=":B1_14_2" index="2" speed="5.56" length="20.80" shape="4489.60,998.40 4510.40,998.40" />
    </edge>
    <edge id=":B1_17" function="internal">
        <lane id=":B1_17_0" index="0" speed="4.58" length="4.01" shape="4489.60,998.40 4493.55,999.11" />
    </edge>
    <edge id=":B1_21" function="internal">
        <lane id=":B1_21_0" index="0" speed="4.58" length="17.98" shape="4493.55,999.11 4494.85,999.35 4498.60,1002.20 4500.85,1006.95 4501.60,1013.60" />
    </edge>
    <edge id=":C0_0" function="internal">
        <lane id=":C0_0_0" index="0" speed="4.58" length="9.03" shape="5195.20,513.60 5194.85,511.15 5193.80,509.40 5192.05,508.35 5189.60,508.00" />
    </edge>
    <edge id=":C0_1" function="internal">
        <lane id=":C0_1_0" index="0" speed="3.61" length="27.20" shape="5195.20,513.60 5195.20,486.40" />
        <lane id=":C0_1_1" index="1" speed="3.61" length="27.20" shape="5198.40,513.60 5198.40,486.40" />
    </edge>
    <edge id=":C0_3" function="internal">
        <lane id=":C0_3_0" index="0" speed="4.58" length="6.30" shape="5198.40,513.60 5199.11,507.34" />
    </edge>
    <edge id=":C0_18" function="internal">
        <lane id=":C0_18_0" index="0" speed="4.58" length="15.70" shape="5199.11,507.34 5199.15,506.95 5201.40,502.20 5205.15,499.35 5210.40,498.40" />
    </edge>
    <edge id=":C0_4" function="internal">
        <lane id=":C0_4_0" index="0" speed="4.58" length="9.03" shape="5210.40,508.00 5207.95,508.35 5206.20,509.40 5205.15,511.15 5204.80,513.60" />
    </edge>
    <edge id=":C0_5" function="internal">
        <lane id=":C0_5_0" index="0" speed="5.56" length="20.80" shape="5210.40,508.00 5189.60,508.00" />
        <lane id=":C0_5_1" index="1" speed="5.56" length="20.80" shape="5210.40,504.80 5189.60,504.80" />
        <lane id=":C0_5_2" index="2" speed="5.56" length="20.80" shape="5210.40,501.60 5189.60,501.60" />
    </edge>
    <edge id=":C0_8" function="internal">
        <lane id=":C0_8_0" index="0" speed="4.58" length="4.01" shape="5210.40,501.60 5206.45,500.89" />
    </edge>
    <edge id=":C0_19" function="internal">
        <lane id=":C0_19_0" index="0" speed="4.58" length="17.98" shape="5206.45,500.89 5205.15,500.65 5201.40,497.80 5199.15,493.05 5198.40,486.40" />
    </edge>
    <edge id=":C0_9" function="internal">
        <lane id=":C0_9_0" index="0" speed="4.58" length="9.03" shape="5204.80,486.40 5205.15,488.85 5206.20,490.60 5207.95,491.65 5210.40,492.00" />
    </edge>
    <edge id=":C0_10" function="internal">
        <lane id=":C0_10_0" index="0" speed="3.61" length="27.20" shape="5204.80,486.40 5204.80,513.60" />
        <lane id=":C0_10_1" index="1" speed="3.61" length="27.20" shape="5201.60,486.40 5201.60,513.60" />
    </edge>
    <edge id=":C0_12" function="internal">
        <lane id=":C0_12_0" index="0" speed="4.58" length="6.30" shape="5201.60,486.40 5200.89,492.66" />
    </edge>
    <edge id=":C0_20" function="internal">
        <lane id=":C0_20_0" index="0" speed="4.58" length="15.70" shape="5200.89,492.66 5200.85,493.05 5198.60,497.80 5194.85,500.65 5189.60,501.60" />
    </edge>
    <edge id=":C0_13" function="internal">
        <lane id=":C0_13_0" index="0" speed="4.58" length="9.03" shape="5189.60,492.00 5192.05,491.65 5193.80,490.60 5194.85,488.85 5195.20,486.40" />
    </edge>
    <edge id=":C0_14" function="internal">
        <lane id=":C0_14_0" index="0" speed="5.56" length="20.80" shape="5189.60,492.00 5210.40,492.00" />
        <lane id=":C0_14_1" index="1" speed="5.56" length="20.80" shape="5189.60,495.20 5210.40,495.20" />
        <lane id=":C0_14_2" index="2" speed="5.56" length="20.80" shape="5189.60,498.40 5210.40,498.40" />
    </edge>
    <edge id=":C0_17" function="internal">
        <lane id=":C0_17_0" index="0" speed="4.58" length="4.01" shape="5189.60,498.40 5193.55,499.11" />
    </edge>
    <edge id=":C0_21" function="internal">
        <lane id=":C0_21_0" index="0" speed="4.58" length="17.98" shape="5193.55,499.11 5194.85,499.35 5198.60,502.20 5200.85,506.95 5201.60,513.60" />
    </edge>
    <edge id=":C1_0" function="internal">
        <lane id=":C1_0_0" index="0" speed="4.58" length="9.03" shape="5195.20,1013.60 5194.85,1011.15 5193.80,1009.40 5192.05,1008.35 5189.60,1008.00" />
    </edge>
    <edge id=":C1_1" function="internal">
        <lane id=":C1_1_0" index="0" speed="3.61" length="27.20" shape="5195.20,1013.60 5195.20,986.40" />
        <lane id=":C1_1_1" index="1" speed="3.61" length="27.20" shape="5198.40,1013.60 5198.40,986.40" />
    </edge>
    <edge id=":C1_3" function="internal">
        <lane id=":C1_3_0" index="0" speed="4.58" length="6.30" shape="5198.40,1013.60 5199.11,1007.34" />
    </edge>
    <edge id=":C1_18" function="internal">
        <lane id=":C1_18_0" index="0" speed="4.58" length="15.70" shape="5199.11,1007.34 5199.15,1006.95 5201.40,1002.20 5205.15,999.35 5210.40,998.40" />
    </edge>
    <edge id=":C1_4" function="internal">
        <lane id=":C1_4_0" index="0" speed="4.58" length="9.03" shape="5210.40,1008.00 5207.95,1008.35 5206.20,1009.40 5205.15,1011.15 5204.80,1013.60" />
    </edge>
    <edge id=":C1_5" function="internal">
        <lane id=":C1_5_0" index="0" speed="5.56" length="20.80" shape="5210.40,1008.00 5189.60,1008.00" />
        <lane id=":C1_5_1" index="1" speed="5.56" length="20.80" shape="5210.40,1004.80 5189.60,1004.80" />
        <lane id=":C1_5_2" index="2" speed="5.56" length="20.80" shape="5210.40,1001.60 5189.60,1001.60" />
    </edge>
    <edge id=":C1_8" function="internal">
        <lane id=":C1_8_0" index="0" speed="4.58" length="4.01" shape="5210.40,1001.60 5206.45,1000.89" />
    </edge>
    <edge id=":C1_19" function="internal">
        <lane id=":C1_19_0" index="0" speed="4.58" length="17.98" shape="5206.45,1000.89 5205.15,1000.65 5201.40,997.80 5199.15,993.05 5198.40,986.40" />
    </edge>
    <edge id=":C1_9" function="internal">
        <lane id=":C1_9_0" index="0" speed="4.58" length="9.03" shape="5204.80,986.40 5205.15,988.85 5206.20,990.60 5207.95,991.65 5210.40,992.00" />
    </edge>
    <edge id=":C1_10" function="internal">
        <lane id=":C1_10_0" index="0" speed="3.61" length="27.20" shape="5204.80,986.40 5204.80,1013.60" />
        <lane id=":C1_10_1" index="1" speed="3.61" length="27.20" shape="5201.60,986.40 5201.60,1013.60" />
    </edge>
    <edge id=":C1_12" function="internal">
        <lane id=":C1_12_0" index="0" speed="4.58" length="6.30" shape="5201.60,986.40 5200.89,992.66" />
    </edge>
    <edge id=":C1_20" function="internal">
        <lane id=":C1_20_0" index="0" speed="4.58" length="15.70" shape="5200.89,992.66 5200.85,993.05 5198.60,997.80 5194.85,1000.65 5189.60,1001.60" />
    </edge>
    <edge id=":C1_13" function="internal">
        <lane id=":C1_13_0" index="0" speed="4.58" length="9.03" shape="5189.60,992.00 5192.05,991.65 5193.80,990.60 5194.85,988.85 5195.20,986.40" />
    </edge>
    <edge id=":C1_14" function="internal">
        <lane id=":C1_14_0" index="0" speed="5.56" length="20.80" shape="5189.60,992.00 5210.40,992.00" />
        <lane id=":C1_14_1" index="1" speed="5.56" length="20.80" shape="5189.60,995.20 5210.40,995.20" />
        <lane id=":C1_14_2" index="2" speed="5.56" length="20.80" shape="5189.60,998.40 5210.40,998.40" />
    </edge>
    <edge id=":C1_17" function="internal">
        <lane id=":C1_17_0" index="0" speed="4.58" length="4.01" shape="5189.60,998.40 5193.55,999.11" />
    </edge>
    <edge id=":C1_21" function="internal">
        <lane id=":C1_21_0" index="0" speed="4.58" length="17.98" shape="5193.55,999.11 5194.85,999.35 5198.60,1002.20 5200.85,1006.95 5201.60,1013.60" />
    </edge>
    <edge id=":hwy_E1_0" function="internal">
        <lane id=":hwy_E1_0_0" index="0" speed="27.78" length="31.18" shape="1145.32,988.80 1176.50,988.80" />
        <lane id=":hwy_E1_0_1" index="1" speed="27.78" length="31.18" shape="1145.32,992.00 1176.50,992.00" />
        <lane id=":hwy_E1_0_2" index="2" speed="27.78" length="31.18" shape="1145.32,995.20 1176.50,995.20" />
        <lane id=":hwy_E1_0_3" index="3" speed="27.78" length="31.18" shape="1145.32,998.40 1176.50,998.40" />
    </edge>
    <edge id=":hwy_E1_4" function="internal">
        <lane id=":hwy_E1_4_0" index="0" speed="23.61" length="35.66" shape="1145.51,1001.76 1149.99,999.00 1156.31,993.47 1164.98,988.05 1176.50,985.60" />
    </edge>
    <edge id=":hwy_E1_end_0" function="internal">
        <lane id=":hwy_E1_end_0_0" index="0" speed="27.78" length="8.00" shape="1421.00,988.80 1429.00,988.80" />
        <lane id=":hwy_E1_end_0_1" index="1" speed="27.78" length="8.00" shape="1421.00,992.00 1429.00,992.00" />
        <lane id=":hwy_E1_end_0_2" index="2" speed="27.78" length="8.00" shape="1421.00,995.20 1429.00,995.20" />
        <lane id=":hwy_E1_end_0_3" index="3" speed="27.78" length="8.00" shape="1421.00,998.40 1429.00,998.40" />
    </edge>
    <edge id=":hwy_E2_0" function="internal">
        <lane id=":hwy_E2_0_0" index="0" speed="27.78" length="31.18" shape="2145.32,988.80 2176.50,988.80" />
        <lane id=":hwy_E2_0_1" index="1" speed="27.78" length="31.18" shape="2145.32,992.00 2176.50,992.00" />
        <lane id=":hwy_E2_0_2" index="2" speed="27.78" length="31.18" shape="2145.32,995.20 2176.50,995.20" />
        <lane id=":hwy_E2_0_3" index="3" speed="27.78" length="31.18" shape="2145.32,998.40 2176.50,998.40" />
    </edge>
    <edge id=":hwy_E2_4" function="internal">
        <lane id=":hwy_E2_4_0" index="0" speed="23.61" length="35.66" shape="2145.51,1001.76 2149.99,999.00 2156.31,993.47 2164.98,988.05 2176.50,985.60" />
    </edge>
    <edge id=":hwy_E2_end_0" function="internal">
        <lane id=":hwy_E2_end_0_0" index="0" speed="27.78" length="8.00" shape="2421.00,988.80 2429.00,988.80" />
        <lane id=":hwy_E2_end_0_1" index="1" speed="27.78" length="8.00" shape="2421.00,992.00 2429.00,992.00" />
        <lane id=":hwy_E2_end_0_2" index="2" speed="27.78" length="8.00" shape="2421.00,995.20 2429.00,995.20" />
        <lane id=":hwy_E2_end_0_3" index="3" speed="27.78" length="8.00" shape="2421.00,998.40 2429.00,998.40" />
    </edge>
    <edge id=":hwy_E_out_0" function="internal">
        <lane id=":hwy_E_out_0_0" index="0" speed="20.84" length="8.00" shape="2996.00,992.00 3004.00,992.00" />
        <lane id=":hwy_E_out_0_1" index="1" speed="20.84" length="8.00" shape="2996.00,995.20 3004.00,995.20" />
        <lane id=":hwy_E_out_0_2" index="2" speed="20.84" length="8.00" shape="2996.00,998.40 3004.00,998.40" />
    </edge>
    <edge id=":hwy_W1_0" function="internal">
        <lane id=":hwy_W1_0_0" index="0" speed="27.78" length="31.18" shape="1854.68,511.20 1823.50,511.20" />
        <lane id=":hwy_W1_0_1" index="1" speed="27.78" length="31.18" shape="1854.68,508.00 1823.50,508.00" />
        <lane id=":hwy_W1_0_2" index="2" speed="27.78" length="31.18" shape="1854.68,504.80 1823.50,504.80" />
        <lane id=":hwy_W1_0_3" index="3" speed="27.78" length="31.18" shape="1854.68,501.60 1823.50,501.60" />
    </edge>
    <edge id=":hwy_W1_4" function="internal">
        <lane id=":hwy_W1_4_0" index="0" speed="23.61" length="35.66" shape="1854.49,498.24 1850.01,501.00 1843.69,506.53 1835.02,511.95 1823.50,514.40" />
    </edge>
    <edge id=":hwy_W1_end_0" function="internal">
        <lane id=":hwy_W1_end_0_0" index="0" speed="27.78" length="8.00" shape="1579.00,511.20 1571.00,511.20" />
        <lane id=":hwy_W1_end_0_1" index="1" speed="27.78" length="8.00" shape="1579.00,508.00 1571.00,508.00" />
        <lane id=":hwy_W1_end_0_2" index="2" speed="27.78" length="8.00" shape="1579.00,504.80 1571.00,504.80" />
        <lane id=":hwy_W1_end_0_3" index="3" speed="27.78" length="8.00" shape="1579.00,501.60 1571.00,501.60" />
    </edge>
    <edge id=":hwy_W2_0" function="internal">
        <lane id=":hwy_W2_0_0" index="0" speed="27.78" length="31.18" shape="854.68,511.20 823.50,511.20" />
        <lane id=":hwy_W2_0_1" index="1" speed="27.78" length="31.18" shape="854.68,508.00 823.50,508.00" />
        <lane id=":hwy_W2_0_2" index="2" speed="27.78" length="31.18" shape="854.68,504.80 823.50,504.80" />
        <lane id=":hwy_W2_0_3" index="3" speed="27.78" length="31.18" shape="854.68,501.60 823.50,501.60" />
    </edge>
    <edge id=":hwy_W2_4" function="internal">
        <lane id=":hwy_W2_4_0" index="0" speed="23.61" length="35.66" shape="854.49,498.24 850.01,501.00 843.69,506.53 835.02,511.95 823.50,514.40" />
    </edge>
    <edge id=":hwy_W2_end_0" function="internal">
        <lane id=":hwy_W2_end_0_0" index="0" speed="27.78" length="8.00" shape="579.00,511.20 571.00,511.20" />
        <lane id=":hwy_W2_end_0_1" index="1" speed="27.78" length="8.00" shape="579.00,508.00 571.00,508.00" />
        <lane id=":hwy_W2_end_0_2" index="2" speed="27.78" length="8.00" shape="579.00,504.80 571.00,504.80" />
        <lane id=":hwy_W2_end_0_3" index="3" speed="27.78" length="8.00" shape="579.00,501.60 571.00,501.60" />
    </edge>
    <edge id=":hwy_W_in_0" function="internal">
        <lane id=":hwy_W_in_0_0" index="0" speed="20.84" length="8.00" shape="3004.00,508.00 2996.00,508.00" />
        <lane id=":hwy_W_in_0_1" index="1" speed="20.84" length="8.00" shape="3004.00,504.80 2996.00,504.80" />
        <lane id=":hwy_W_in_0_2" index="2" speed="20.84" length="8.00" shape="3004.00,501.60 2996.00,501.60" />
    </edge>
    <edge id=":left0_0" function="internal">
        <lane id=":left0_0_0" index="0" speed="9.72" length="3.00" shape="3301.50,508.00 3298.50,508.00" />
        <lane id=":left0_0_1" index="1" speed="9.72" length="3.00" shape="3301.50,504.80 3298.50,504.80" />
        <lane id=":left0_0_2" index="2" speed="9.72" length="3.00" shape="3301.50,501.60 3298.50,501.60" />
    </edge>
    <edge id=":left1_0" function="internal">
        <lane id=":left1_0_0" index="0" speed="9.72" length="3.00" shape="3298.50,992.00 3301.50,992.00" />
        <lane id=":left1_0_1" index="1" speed="9.72" length="3.00" shape="3298.50,995.20 3301.50,995.20" />
        <lane id=":left1_0_2" index="2" speed="9.72" length="3.00" shape="3298.50,998.40 3301.50,998.40" />
    </edge>
    <edge id=":svc_E1_0" function="internal">
        <lane id=":svc_E1_0_0" index="0" speed="15.28" length="36.17" shape="848.82,1035.20 857.96,1034.71 868.69,1033.59 878.48,1032.37 884.79,1031.56" />
    </edge>
    <edge id=":svc_E1_1" function="internal">
        <lane id=":svc_E1_1_0" index="0" speed="11.11" length="36.18" shape="848.82,1035.20 885.00,1035.20" />
        <lane id=":svc_E1_1_1" index="1" speed="11.11" length="36.18" shape="848.82,1038.40 885.00,1038.40" />
    </edge>
    <edge id=":svc_E2_0" function="internal">
        <lane id=":svc_E2_0_0" index="0" speed="15.28" length="36.17" shape="1848.82,1035.20 1857.96,1034.71 1868.69,1033.59 1878.48,1032.37 1884.79,1031.56" />
    </edge>
    <edge id=":svc_E2_1" function="internal">
        <lane id=":svc_E2_1_0" index="0" speed="11.11" length="36.18" shape="1848.82,1035.20 1885.00,1035.20" />
        <lane id=":svc_E2_1_1" index="1" speed="11.11" length="36.18" shape="1848.82,1038.40 1885.00,1038.40" />
    </edge>
    <edge id=":svc_W1_0" function="internal">
        <lane id=":svc_W1_0_0" index="0" speed="15.28" length="36.17" shape="2151.18,464.80 2142.04,465.29 2131.31,466.41 2121.52,467.63 2115.21,468.44" />
    </edge>