<?xml version='1.0' encoding='UTF-8'?>
<routes xmlns:xsi="http://www.w3.org/2001/XMLSchema-instance">
    <vType id="car" accel="2.6" decel="4.5" sigma="0.5" length="5" maxSpeed="16.67" />
    <route id="NS_A" edges="top0A2 A2A1 A1A0 A0bottom0" />
    <route id="NS_B" edges="top1B2 B2B1 B1B0 B0bottom1" />
    <route id="NS_C" edges="top2C2 C2C1 C1C0 C0bottom2" />
    <route id="WE_0" edges="left0A0 A0B0 B0C0 C0right0" />
    <route id="WE_1" edges="left1A1 A1B1 B1C1 C1right1" />
    <route id="WE_2" edges="left2A2 A2B2 B2C2 C2right2" />
    <route id="SN_A" edges="bottom0A0 A0A1 A1A2 A2top0" />
    <route id="SN_B" edges="bottom1B0 B0B1 B1B2 B2top1" />
    <route id="SN_C" edges="bottom2C0 C0C1 C1C2 C2top2" />
    <route id="EW_0" edges="right0C0 C0B0 B0A0 A0left0" />
    <route id="EW_1" edges="right1C1 C1B1 B1A1 A1left1" />
    <route id="EW_2" edges="right2C2 C2B2 B2A2 A2left2" />
    <vehicle id="balanced_0" type="car" depart="1.46" route="EW_0" />
    <vehicle id="balanced_1" type="car" depart="2.06" route="WE_1" />
    <vehicle id="balanced_2" type="car" depart="6.09" route="SN_B" />
    <vehicle id="balanced_3" type="car" depart="9.63" route="EW_2" />
    <vehicle id="balanced_4" type="car" depart="10.21" route="WE_1" />
    <vehicle id="balanced_5" type="car" depart="12.76" route="EW_0" />
    <vehicle id="balanced_6" type="car" depart="19.96" route="SN_A" />
    <vehicle id="balanced_7" type="car" depart="21.23" route="SN_A" />
    <vehicle id="balanced_8" type="car" depart="21.98" route="EW_1" />
    <vehicle id="balanced_9" type="car" depart="23.40" route="WE_2" />
    <vehicle id="balanced_10" type="car" depart="27.67" route="EW_0" />
    <vehicle id="balanced_11" type="car" depart="27.83" route="NS_B" />
    <vehicle id="balanced_12" type="car" depart="28.16" route="NS_C" />
    <vehicle id="balanced_13" type="car" depart="33.83" route="NS_C" />
    <vehicle id="balanced_14" type="car" depart="34.81" route="NS_C" />
    <vehicle id="balanced_15" type="car" depart="36.54" route="WE_2" />
    <vehicle id="balanced_16" type="car" depart="41.33" route="EW_1" />
    <vehicle id="balanced_17" type="car" depart="50.11" route="SN_C" />
    <vehicle id="balanced_18" type="car" depart="50.93" route="SN_C" />
    <vehicle id="balanced_19" type="car" depart="53.50" route="WE_2" />
    <vehicle id="balanced_20" type="car" depart="67.47" route="WE_1" />
    <vehicle id="balanced_21" type="car" depart="69.78" route="NS_B" />
    <vehicle id="balanced_22" type="car" depart="70.12" route="SN_B" />
    <vehicle id="balanced_23" type="car" depart="73.37" route="SN_B" />
    <vehicle id="balanced_24" type="car" depart="75.08" route="SN_B" />
    <vehicle id="balanced_25" type="car" depart="76.89" route="WE_0" />
    <vehicle id="balanced_26" type="car" depart="85.19" route="NS_B" />
    <vehicle id="balanced_27" type="car" depart="87.93" route="NS_A" />
    <vehicle id="balanced_28" type="car" depart="89.23" route="SN_C" />
    <vehicle id="balanced_29" type="car" depart="90.04" route="WE_2" />
    <vehicle id="balanced_30" type="car" depart="90.09" route="SN_C" />
    <vehicle id="balanced_31" type="car" depart="92.44" route="EW_1" />
    <vehicle id="balanced_32" type="car" depart="92.81" route="EW_2" />
    <vehicle id="balanced_33" type="car" depart="94.51" route="SN_B" />
    <vehicle id="balanced_34" type="car" depart="95.53" route="SN_C" />
    <vehicle id="balanced_35" type="car" depart="97.08" route="NS_A" />
    <vehicle id="balanced_36" type="car" depart="97.57" route="WE_1" />
    <vehicle id="balanced_37" type="car" depart="103.32" route="EW_0" />
    <vehicle id="balanced_38" type="car" depart="104.49" route="SN_A" />
    <vehicle id="balanced_39" type="car" depart="107.27" route="NS_C" />
    <vehicle id="balanced_40" type="car" depart="110.37" route="WE_1" />
    <vehicle id="balanced_41" type="car" depart="115.56" route="SN_C" />
    <vehicle id="balanced_42" type="car" depart="117.78" route="NS_B" />
    <vehicle id="balanced_43" type="car" depart="129.24" route="EW_1" />
    <vehicle id="balanced_44" type="car" depart="133.27" route="WE_1" />
    <vehicle id="balanced_45" type="car" depart="143.50" route="SN_A" />
    <vehicle id="balanced_46" type="car" depart="144.83" route="EW_2" />
    <vehicle id="balanced_47" type="car" depart="152.29" route="WE_1" />
    <vehicle id="balanced_48" type="car" depart="156.11" route="NS_C" />
    <vehicle id="balanced_49" type="car" depart="157.13" route="WE_1" />
    <vehicle id="balanced_50" type="car" depart="163.50" route="SN_C" />
    <vehicle id="balanced_51" type="car" depart="164.97" route="EW_2" />
    <vehicle id="balanced_52" type="car" depart="165.57" route="EW_1" />
    <vehicle id="balanced_53" type="car" depart="169.62" route="NS_C" />
    <vehicle id="balanced_54" type="car" depart="176.56" route="NS_B" />
    <vehicle id="balanced_55" type="car" depart="180.79" route="WE_2" />
    <vehicle id="balanced_56" type="car" depart="181.02" route="SN_B" />
    <vehicle id="balanced_57" type="car" depart="182.12" route="NS_C" />
    <vehicle id="balanced_58" type="car" depart="184.96" route="EW_1" />
    <vehicle id="balanced_59" type="car" depart="188.64" route="SN_C" />
    <vehicle id="balanced_60" type="car" depart="189.39" route="EW_0" />
    <vehicle id="balanced_61" type="car" depart="192.99" route="SN_C" />
    <vehicle id="balanced_62" type="car" depart="205.79" route="EW_2" />
    <vehicle id="balanced_63" type="car" depart="208.53" route="NS_C" />
    <vehicle id="balanced_64" type="car" depart="211.09" route="WE_1" />
    <vehicle id="balanced_65" type="car" depart="218.97" route="NS_B" />
    <vehicle id="balanced_66" type="car" depart="227.58" route="NS_A" />
    <vehicle id="balanced_67" type="car" depart="228.70" route="WE_1" />
    <vehicle id="balanced_68" type="car" depart="231.22" route="NS_A" />
    <vehicle id="balanced_69" type="car" depart="236.46" route="NS_B" />
    <vehicle id="balanced_70" type="car" depart="241.68" route="EW_0" />
    <vehicle id="balanced_71" type="car" depart="246.31" route="SN_C" />
    <vehicle id="balanced_72" type="car" depart="247.00" route="EW_2" />
    <vehicle id="balanced_73" type="car" depart="249.17" route="NS_B" />
    <vehicle id="balanced_74" type="car" depart="251.91" route="EW_2" />
    <vehicle id="balanced_75" type="car" depart="255.09" route="NS_B" />
    <vehicle id="balanced_76" type="car" depart="255.58" route="NS_A" />
    <vehicle id="balanced_77" type="car" depart="257.08" route="EW_2" />
    <vehicle id="balanced_78" type="car" depart="259.47" route="EW_0" />
    <vehicle id="balanced_79" type="car" depart="261.16" route="SN_A" />
    <vehicle id="balanced_80" type="car" depart="262.18" route="WE_2" />
    <vehicle id="balanced_81" type="car" depart="263.74" route="SN_B" />
    <vehicle id="balanced_82" type="car" depart="264.57" route="SN_C" />
    <vehicle id="balanced_83" type="car" depart="266.70" route="EW_0" />
    <vehicle id="balanced_84" type="car" depart="270.23" route="SN_B" />
    <vehicle id="balanced_85" type="car" depart="270.88" route="EW_1" />
    <vehicle id="balanced_86" type="car" depart="273.59" route="EW_0" />
    <vehicle id="balanced_87" type="car" depart="278.94" route="WE_2" />
    <vehicle id="balanced_88" type="car" depart="284.29" route="EW_1" />
    <vehicle id="balanced_89" type="car" depart="287.25" route="EW_1" />
    <vehicle id="balanced_90" type="car" depart="288.40" route="SN_B" />
    <vehicle id="balanced_91" type="car" depart="289.59" route="EW_0" />
    <vehicle id="balanced_92" type="car" depart="290.85" route="EW_0" />
    <vehicle id="balanced_93" type="car" depart="294.86" route="EW_0" />
    <vehicle id="balanced_94" type="car" depart="305.26" route="SN_B" />
    <vehicle id="balanced_95" type="car" depart="305.85" route="SN_A" />
    <vehicle id="balanced_96" type="car" depart="308.21" route="SN_C" />
    <vehicle id="balanced_97" type="car" depart="308.35" route="EW_1" />
    <vehicle id="balanced_98" type="car" depart="311.99" route="NS_A" />
    <vehicle id="balanced_99" type="car" depart="312.98" route="WE_2" />
    <vehicle id="balanced_100" type="car" depart="317.27" route="NS_B" />
    <vehicle id="balanced_101" type="car" depart="324.48" route="NS_A" />
    <vehicle id="balanced_102" type="car" depart="327.27" route="EW_1" />
    <vehicle id="balanced_103" type="car" depart="328.47" route="EW_1" />
    <vehicle id="balanced_104" type="car" depart="328.78" route="NS_C" />
    <vehicle id="balanced_105" type="car" depart="332.27" route="WE_1" />
    <vehicle id="balanced_106" type="car" depart="333.89" route="EW_1" />
    <vehicle id="balanced_107" type="car" depart="334.99" route="NS_B" />
    <vehicle id="balanced_108" type="car" depart="335.55" route="EW_2" />
    <vehicle id="balanced_109" type="car" depart="335.63" route="SN_A" />
    <vehicle id="balanced_110" type="car" depart="342.31" route="NS_B" />
    <vehicle id="balanced_111" type="car" depart="347.63" route="EW_1" />
    <vehicle id="balanced_112" type="car" depart="348.18" route="SN_A" />
    <vehicle id="balanced_113" type="car" depart="348.95" route="EW_1" />
    <vehicle id="balanced_114" type="car" depart="349.89" route="WE_0" />
    <vehicle id="balanced_115" type="car" depart="354.30" route="EW_0" />
    <vehicle id="balanced_116" type="car" depart="354.40" route="WE_0" />
    <vehicle id="balanced_117" type="car" depart="356.48" route="SN_C" />
    <vehicle id="balanced_118" type="car" depart="357.04" route="SN_B" />
    <vehicle id="balanced_119" type="car" depart="357.68" route="NS_B" />
    <vehicle id="balanced_120" type="car" depart="361.89" route="NS_A" />
    <vehicle id="balanced_121" type="car" depart="363.61" route="NS_B" />
    <vehicle id="balanced_122" type="car" depart="366.84" route="SN_C" />
    <vehicle id="balanced_123" type="car" depart="370.06" route="WE_0" />
    <vehicle id="balanced_124" type="car" depart="379.94" route="EW_1" />
    <vehicle id="balanced_125" type="car" depart="383.71" route="SN_A" />
    <vehicle id="balanced_126" type="car" depart="385.33" route="SN_C" />
    <vehicle id="balanced_127" type="car" depart="389.14" route="NS_A" />
    <vehicle id="balanced_128" type="car" depart="389.16" route="WE_0" />
    <vehicle id="balanced_129" type="car" depart="389.59" route="SN_A" />
    <vehicle id="balanced_130" type="car" depart="390.05" route="SN_A" />
    <vehicle id="balanced_131" type="car" depart="390.25" route="SN_A" />
    <vehicle id="balanced_132" type="car" depart="392.59" route="SN_B" />
    <vehicle id="balanced_133" type="car" depart="394.74" route="NS_C" />
    <vehicle id="balanced_134" type="car" depart="401.59" route="SN_C" />
    <vehicle id="balanced_135" type="car" depart="409.74" route="SN_B" />
    <vehicle id="balanced_136" type="car" depart="412.32" route="EW_0" />
    <vehicle id="balanced_137" type="car" depart="414.61" route="SN_B" />
    <vehicle id="balanced_138" type="car" depart="414.62" route="WE_0" />
    <vehicle id="balanced_139" type="car" depart="415.23" route="WE_0" />
    <vehicle id="balanced_140" type="car" depart="415.54" route="WE_2" />
    <vehicle id="balanced_141" type="car" depart="422.88" route="SN_A" />
    <vehicle id="balanced_142" type="car" depart="426.43" route="EW_2" />
    <vehicle id="balanced_143" type="car" depart="430.40" route="EW_0" />
    <vehicle id="balanced_144" type="car" depart="431.59" route="NS_C" />
    <vehicle id="balanced_145" type="car" depart="434.36" route="WE_2" />
    <vehicle id="balanced_146" type="car" depart="435.62" route="NS_C" />
    <vehicle id="balanced_147" type="car" depart="435.80" route="WE_2" />
    <vehicle id="balanced_148" type="car" depart="437.13" route="WE_0" />
    <vehicle id="balanced_149" type="car" depart="439.77" route="EW_0" />
    <vehicle id="balanced_150" type="car" depart="440.03" route="SN_B" />
    <vehicle id="balanced_151" type="car" depart="447.67" route="NS_A" />
    <vehicle id="balanced_152" type="car" depart="453.33" route="NS_A" />
    <vehicle id="balanced_153" type="car" depart="454.40" route="EW_1" />
    <vehicle id="balanced_154" type="car" depart="454.61" route="EW_2" />
    <vehicle id="balanced_155" type="car" depart="458.24" route="WE_2" />
    <vehicle id="balanced_156" type="car" depart="458.80" route="WE_0" />
    <vehicle id="balanced_157" type="car" depart="459.46" route="EW_0" />
    <vehicle id="balanced_158" type="car" depart="462.21" route="WE_0" />
    <vehicle id="balanced_159" type="car" depart="467.97" route="EW_1" />
    <vehicle id="balanced_160" type="car" depart="475.78" route="WE_1" />
    <vehicle id="balanced_161" type="car" depart="476.32" route="WE_1" />
    <vehicle id="balanced_162" type="car" depart="483.45" route="SN_B" />
    <vehicle id="balanced_163" type="car" depart="488.39" route="WE_0" />
    <vehicle id="balanced_164" type="car" depart="488.52" route="WE_1" />
    <vehicle id="balanced_165" type="car" depart="494.05" route="WE_2" />
    <vehicle id="balanced_166" type="car" depart="498.15" route="WE_0" />
    <vehicle id="balanced_167" type="car" depart="503.20" route="SN_A" />
    <vehicle id="balanced_168" type="car" depart="506.73" route="WE_0" />
    <vehicle id="balanced_169" type="car" depart="510.75" route="SN_B" />
    <vehicle id="balanced_170" type="car" depart="515.22" route="NS_B" />
    <vehicle id="balanced_171" type="car" depart="520.88" route="SN_B" />
    <vehicle id="balanced_172" type="car" depart="524.05" route="WE_2" />
    <vehicle id="balanced_173" type="car" depart="531.20" route="WE_2" />
    <vehicle id="balanced_174" type="car" depart="533.14" route="WE_1" />
    <vehicle id="balanced_175" type="car" depart="534.94" route="NS_B" />
    <vehicle id="balanced_176" type="car" depart="537.11" route="SN_B" />
    <vehicle id="balanced_177" type="car" depart="548.58" route="WE_0" />
    <vehicle id="balanced_178" type="car" depart="549.50" route="NS_C" />
    <vehicle id="balanced_179" type="car" depart="550.22" route="WE_2" />
    <vehicle id="balanced_180" type="car" depart="555.70" route="EW_2" />
    <vehicle id="balanced_181" type="car" depart="556.28" route="NS_A" />
    <vehicle id="balanced_182" type="car" depart="556.39" route="NS_C" />
    <vehicle id="balanced_183" type="car" depart="557.27" route="SN_B" />
    <vehicle id="balanced_184" type="car" depart="559.73" route="NS_A" />
    <vehicle id="balanced_185" type="car" depart="565.41" route="NS_C" />
    <vehicle id="balanced_186" type="car" depart="566.68" route="WE_1" />
    <vehicle id="balanced_187" type="car" depart="566.76" route="EW_0" />
    <vehicle id="balanced_188" type="car" depart="567.89" route="SN_C" />
    <vehicle id="balanced_189" type="car" depart="568.71" route="WE_1" />
    <vehicle id="balanced_190" type="car" depart="570.16" route="WE_0" />
    <vehicle id="balanced_191" type="car" depart="588.25" route="SN_C" />
    <vehicle id="balanced_192" type="car" depart="594.16" route="WE_1" />
    <vehicle id="balanced_193" type="car" depart="597.32" route="SN_A" />
    <vehicle id="balanced_194" type="car" depart="598.72" route="EW_0" />
    <vehicle id="balanced_195" type="car" depart="604.04" route="SN_B" />
    <vehicle id="balanced_196" type="car" depart="610.89" route="SN_C" />
    <vehicle id="balanced_197" type="car" depart="611.94" route="NS_B" />
    <vehicle id="balanced_198" type="car" depart="616.10" route="SN_A" />
    <vehicle id="balanced_199" type="car" depart="625.73" route="EW_1" />
    <vehicle id="balanced_200" type="car" depart="627.29" route="SN_B" />
    <vehicle id="balanced_201" type="car" depart="628.19" route="NS_A" />
    <vehicle id="balanced_202" type="car" depart="632.30" route="EW_1" />
    <vehicle id="balanced_203" type="car" depart="632.50" route="NS_C" />
    <vehicle id="balanced_204" type="car" depart="633.19" route="WE_0" />
    <vehicle id="balanced_205" type="car" depart="642.84" route="EW_1" />
    <vehicle id="balanced_206" type="car" depart="643.15" route="SN_C" />
    <vehicle id="balanced_207" type="car" depart="645.99" route="NS_C" />
    <vehicle id="balanced_208" type="car" depart="649.50" route="WE_1" />
    <vehicle id="balanced_209" type="car" depart="653.36" route="EW_2" />
    <vehicle id="balanced_210" type="car" depart="654.62" route="SN_C" />
    <vehicle id="balanced_211" type="car" depart="663.71" route="SN_B" />
    <vehicle id="balanced_212" type="car" depart="666.54" route="SN_A" />
    <vehicle id="balanced_213" type="car" depart="668.97" route="EW_0" />
    <vehicle id="balanced_214" type="car" depart="675.30" route="NS_B" />
    <vehicle id="balanced_215" type="car" depart="679.15" route="NS_C" />
    <vehicle id="balanced_216" type="car" depart="683.31" route="SN_B" />
    <vehicle id="balanced_217" type="car" depart="684.75" route="EW_2" />
    <vehicle id="balanced_218" type="car" depart="685.48" route="NS_A" />
    <vehicle id="balanced_219" type="car" depart="693.30" route="NS_B" />
    <vehicle id="balanced_220" type="car" depart="695.27" route="EW_2" />
    <vehicle id="balanced_221" type="car" depart="698.82" route="WE_1" />
    <vehicle id="balanced_222" type="car" depart="699.97" route="EW_2" />
    <vehicle id="balanced_223" type="car" depart="715.82" route="NS_B" />
    <vehicle id="balanced_224" type="car" depart="716.87" route="SN_B" />
    <vehicle id="balanced_225" type="car" depart="717.18" route="WE_2" />
    <vehicle id="balanced_226" type="car" depart="717.70" route="WE_2" />
    <vehicle id="balanced_227" type="car" depart="724.14" route="SN_A" />
    <vehicle id="balanced_228" type="car" depart="732.81" route="EW_0" />
    <vehicle id="balanced_229" type="car" depart="732.95" route="WE_0" />
    <vehicle id="balanced_230" type="car" depart="735.33" route="EW_2" />
    <vehicle id="balanced_231" type="car" depart="744.60" route="NS_A" />
    <vehicle id="balanced_232" type="car" depart="745.77" route="NS_C" />
    <vehicle id="balanced_233" type="car" depart="748.04" route="NS_C" />
    <vehicle id="balanced_234" type="car" depart="754.23" route="EW_0" />
    <vehicle id="balanced_235" type="car" depart="756.28" route="WE_2" />
    <vehicle id="balanced_236" type="car" depart="759.54" route="EW_1" />
    <vehicle id="balanced_237" type="car" depart="759.69" route="NS_B" />
    <vehicle id="balanced_238" type="car" depart="760.44" route="SN_A" />
    <vehicle id="balanced_239" type="car" depart="761.98" route="SN_A" />
    <vehicle id="balanced_240" type="car" depart="762.47" route="SN_C" />
    <vehicle id="balanced_241" type="car" depart="763.63" route="NS_C" />
    <vehicle id="balanced_242" type="car" depart="765.86" route="SN_C" />
    <vehicle id="balanced_243" type="car" depart="767.36" route="WE_2" />
    <vehicle id="balanced_244" type="car" depart="769.33" route="NS_A" />
    <vehicle id="balanced_245" type="car" depart="769.49" route="NS_C" />
    <vehicle id="balanced_246" type="car" depart="771.25" route="EW_1" />
    <vehicle id="balanced_247" type="car" depart="774.08" route="SN_C" />
    <vehicle id="balanced_248" type="car" depart="774.48" route="WE_2" />
    <vehicle id="balanced_249" type="car" depart="777.42" route="NS_C" />
    <vehicle id="balanced_250" type="car" depart="778.98" route="SN_C" />
    <vehicle id="balanced_251" type="car" depart="784.67" route="EW_1" />
    <vehicle id="balanced_252" type="car" depart="787.10" route="NS_C" />
    <vehicle id="balanced_253" type="car" depart="789.55" route="WE_1" />
    <vehicle id="balanced_254" type="car" depart="789.92" route="NS_A" />
    <vehicle id="balanced_255" type="car" depart="792.78" route="NS_B" />
    <vehicle id="balanced_256" type="car" depart="793.59" route="WE_0" />
    <vehicle id="balanced_257" type="car" depart="793.94" route="WE_0" />
    <vehicle id="balanced_258" type="car" depart="796.92" route="WE_2" />
    <vehicle id="balanced_259" type="car" depart="797.75" route="WE_1" />
    <vehicle id="balanced_260" type="car" depart="800.76" route="EW_0" />
    <vehicle id="balanced_261" type="car" depart="803.56" route="EW_2" />
    <vehicle id="balanced_262" type="car" depart="807.28" route="SN_B" />
    <vehicle id="balanced_263" type="car" depart="808.71" route="NS_A" />
    <vehicle id="balanced_264" type="car" depart="808.91" route="WE_0" />
    <vehicle id="balanced_265" type="car" depart="812.47" route="NS_A" />
    <vehicle id="balanced_266" type="car" depart="818.94" route="WE_1" />
    <vehicle id="balanced_267" type="car" depart="819.34" route="EW_1" />
    <vehicle id="balanced_268" type="car" depart="820.43" route="NS_A" />
    <vehicle id="balanced_269" type="car" depart="822.58" route="EW_2" />
    <vehicle id="balanced_270" type="car" depart="824.19" route="SN_A" />
    <vehicle id="balanced_271" type="car" depart="824.57" route="EW_1" />
    <vehicle id="balanced_272" type="car" depart="828.41" route="EW_1" />
    <vehicle id="balanced_273" type="car" depart="832.54" route="WE_1" />
    <vehicle id="balanced_274" type="car" depart="833.31" route="WE_0" />
    <vehicle id="balanced_275" type="car" depart="838.05" route="EW_2" />
    <vehicle id="balanced_276" type="car" depart="840.82" route="WE_0" />
    <vehicle id="balanced_277" type="car" depart="841.76" route="NS_B" />
    <vehicle id="balanced_278" type="car" depart="846.73" route="NS_B" />
    <vehicle id="balanced_279" type="car" depart="853.94" route="WE_2" />
    <vehicle id="balanced_280" type="car" depart="856.55" route="SN_B" />
    <vehicle id="balanced_281" type="car" depart="856.82" route="SN_A" />
    <vehicle id="balanced_282" type="car" depart="859.27" route="WE_1" />
    <vehicle id="balanced_283" type="car" depart="861.47" route="SN_B" />
    <vehicle id="balanced_284" type="car" depart="866.99" route="WE_1" />
    <vehicle id="balanced_285" type="car" depart="876.85" route="NS_C" />
    <vehicle id="balanced_286" type="car" depart="877.43" route="NS_C" />
    <vehicle id="balanced_287" type="car" depart="877.91" route="WE_1" />
    <vehicle id="balanced_288" type="car" depart="878.34" route="SN_C" />
    <vehicle id="balanced_289" type="car" depart="881.43" route="WE_2" />
    <vehicle id="balanced_290" type="car" depart="886.38" route="SN_A" />
    <vehicle id="balanced_291" type="car" depart="887.86" route="NS_A" />
    <vehicle id="balanced_292" type="car" depart="890.06" route="WE_1" />
    <vehicle id="balanced_293" type="car" depart="895.16" route="SN_B" />
    <vehicle id="balanced_294" type="car" depart="897.11" route="EW_0" />
    <vehicle id="balanced_295" type="car" depart="898.31" route="SN_B" />
    <vehicle id="balanced_296" type="car" depart="899.30" route="SN_A" />
    <vehicle id="balanced_297" type="car" depart="900.35" route="NS_C" />
    <vehicle id="balanced_298" type="car" depart="901.32" route="WE_1" />
    <vehicle id="balanced_299" type="car" depart="902.36" route="SN_A" />
    <vehicle id="balanced_300" type="car" depart="905.05" route="SN_C" />
    <vehicle id="balanced_301" type="car" depart="908.18" route="NS_C" />
    <vehicle id="balanced_302" type="car" depart="914.32" route="WE_1" />
    <vehicle id="balanced_303" type="car" depart="917.00" route="EW_2" />
    <vehicle id="balanced_304" type="car" depart="919.18" route="EW_2" />
    <vehicle id="balanced_305" type="car" depart="919.87" route="WE_2" />
    <vehicle id="balanced_306" type="car" depart="925.09" route="SN_C" />
    <vehicle id="balanced_307" type="car" depart="933.09" route="SN_B" />
    <vehicle id="balanced_308" type="car" depart="943.04" route="EW_1" />
    <vehicle id="balanced_309" type="car" depart="945.87" route="WE_0" />
    <vehicle id="balanced_310" type="car" depart="948.20" route="EW_2" />
    <vehicle id="balanced_311" type="car" depart="950.34" route="WE_2" />
    <vehicle id="balanced_312" type="car" depart="953.57" route="EW_2" />
    <vehicle id="balanced_313" type="car" depart="954.20" route="NS_B" />
    <vehicle id="balanced_314" type="car" depart="954.72" route="WE_2" />
    <vehicle id="balanced_315" type="car" depart="954.73" route="EW_2" />
    <vehicle id="balanced_316" type="car" depart="955.68" route="SN_C" />
    <vehicle id="balanced_317" type="car" depart="960.50" route="NS_B" />
    <vehicle id="balanced_318" type="car" depart="960.57" route="NS_C" />
    <vehicle id="balanced_319" type="car" depart="961.12" route="SN_B" />
    <vehicle id="balanced_320" type="car" depart="962.81" route="NS_C" />
    <vehicle id="balanced_321" type="car" depart="963.87" route="NS_C" />
    <vehicle id="balanced_322" type="car" depart="966.22" route="EW_0" />
    <vehicle id="balanced_323" type="car" depart="970.24" route="NS_B" />
    <vehicle id="balanced_324" type="car" depart="972.30" route="WE_0" />
    <vehicle id="balanced_325" type="car" depart="975.30" route="WE_0" />
    <vehicle id="balanced_326" type="car" depart="978.17" route="WE_2" />
    <vehicle id="balanced_327" type="car" depart="979.57" route="EW_2" />
    <vehicle id="balanced_328" type="car" depart="980.45" route="SN_C" />
    <vehicle id="balanced_329" type="car" depart="983.40" route="NS_A" />
    <vehicle id="balanced_330" type="car" depart="984.33" route="SN_C" />
    <vehicle id="balanced_331" type="car" depart="987.52" route="WE_1" />
    <vehicle id="balanced_332" type="car" depart="988.13" route="WE_0" />
    <vehicle id="balanced_333" type="car" depart="988.55" route="WE_2" />
    <vehicle id="balanced_334" type="car" depart="990.06" route="WE_1" />
    <vehicle id="balanced_335" type="car" depart="990.11" route="SN_C" />
    <vehicle id="balanced_336" type="car" depart="994.49" route="SN_C" />
    <vehicle id="balanced_337" type="car" depart="994.57" route="WE_1" />
    <vehicle id="balanced_338" type="car" depart="996.05" route="NS_A" />
    <vehicle id="balanced_339" type="car" depart="1000.70" route="WE_1" />
    <vehicle id="balanced_340" type="car" depart="1002.76" route="NS_B" />
    <vehicle id="balanced_341" type="car" depart="1004.85" route="EW_2" />
    <vehicle id="balanced_342" type="car" depart="1018.22" route="NS_C" />
    <vehicle id="balanced_343" type="car" depart="1018.80" route="WE_1" />
    <vehicle id="balanced_344" type="car" depart="1019.69" route="WE_2" />
    <vehicle id="balanced_345" type="car" depart="1028.62" route="WE_0" />
    <vehicle id="balanced_346" type="car" depart="1030.30" route="SN_C" />
    <vehicle id="balanced_347" type="car" depart="1032.89" route="WE_1" />
    <vehicle id="balanced_348" type="car" depart="1037.58" route="EW_0" />
    <vehicle id="balanced_349" type="car" depart="1039.00" route="WE_1" />
    <vehicle id="balanced_350" type="car" depart="1041.80" route="EW_0" />
    <vehicle id="balanced_351" type="car" depart="1048.53" route="WE_1" />
    <vehicle id="balanced_352" type="car" depart="1056.12" route="SN_C" />
    <vehicle id="balanced_353" type="car" depart="1062.40" route="WE_0" />
    <vehicle id="balanced_354" type="car" depart="1062.83" route="EW_1" />
    <vehicle id="balanced_355" type="car" depart="1064.36" route="EW_2" />
    <vehicle id="balanced_356" type="car" depart="1068.15" route="WE_0" />
    <vehicle id="balanced_357" type="car" depart="1074.40" route="SN_C" />
    <vehicle id="balanced_358" type="car" depart="1074.80" route="NS_A" />
    <vehicle id="balanced_359" type="car" depart="1077.76" route="SN_C" />
    <vehicle id="balanced_360" type="car" depart="1079.99" route="NS_A" />
    <vehicle id="balanced_361" type="car" depart="1081.16" route="NS_B" />
    <vehicle id="balanced_362" type="car" depart="1083.42" route="WE_1" />
    <vehicle id="balanced_363" type="car" depart="1085.11" route="NS_A" />
    <vehicle id="balanced_364" type="car" depart="1087.88" route="NS_C" />
    <vehicle id="balanced_365" type="car" depart="1093.81" route="EW_0" />
    <vehicle id="balanced_366" type="car" depart="1095.71" route="WE_1" />
    <vehicle id="balanced_367" type="car" depart="1098.69" route="WE_0" />
    <vehicle id="balanced_368" type="car" depart="1099.37" route="EW_1" />
    <vehicle id="balanced_369" type="car" depart="1102.34" route="WE_2" />
    <vehicle id="balanced_370" type="car" depart="1107.05" route="NS_A" />
    <vehicle id="balanced_371" type="car" depart="1107.40" route="SN_A" />
    <vehicle id="balanced_372" type="car" depart="1109.73" route="SN_C" />
    <vehicle id="balanced_373" type="car" depart="1112.16" route="EW_0" />
    <vehicle id="balanced_374" type="car" depart="1112.34" route="EW_0" />
    <vehicle id="balanced_375" type="car" depart="1113.42" route="WE_0" />
    <vehicle id="balanced_376" type="car" depart="1122.18" route="EW_0" />
    <vehicle id="balanced_377" type="car" depart="1123.05" route="EW_1" />
    <vehicle id="balanced_378" type="car" depart="1129.24" route="EW_0" />
    <vehicle id="balanced_379" type="car" depart="1130.10" route="EW_1" />
    <vehicle id="balanced_380" type="car" depart="1132.26" route="EW_0" />
    <vehicle id="balanced_381" type="car" depart="1132.84" route="WE_2" />
    <vehicle id="balanced_382" type="car" depart="1135.63" route="NS_B" />
    <vehicle id="balanced_383" type="car" depart="1138.24" route="WE_2" />
    <vehicle id="balanced_384" type="car" depart="1139.98" route="SN_B" />
    <vehicle id="balanced_385" type="car" depart="1150.95" route="EW_0" />
    <vehicle id="balanced_386" type="car" depart="1158.40" route="EW_1" />
    <vehicle id="balanced_387" type="car" depart="1160.36" route="WE_0" />
    <vehicle id="balanced_388" type="car" depart="1163.79" route="WE_2" />
    <vehicle id="balanced_389" type="car" depart="1165.58" route="WE_1" />
    <vehicle id="balanced_390" type="car" depart="1166.96" route="SN_A" />
    <vehicle id="balanced_391" type="car" depart="1169.17" route="SN_B" />
    <vehicle id="balanced_392" type="car" depart="1170.67" route="SN_A" />
    <vehicle id="balanced_393" type="car" depart="1176.64" route="NS_C" />