<?xml version='1.0' encoding='UTF-8'?>
<routes xmlns:xsi="http://www.w3.org/2001/XMLSchema-instance">
    <vType id="car" accel="2.6" decel="4.5" sigma="0.5" length="5" maxSpeed="16.67" />
    <route id="NS_A" edges="top0A2 A2A1 A1A0 A0bottom0" />
    <route id="NS_B" edges="top1B2 B2B1 B1B0 B0bottom1" />
    <route id="NS_C" edges="top2C2 C2C1 C1C0 C0bottom2" />
    <route id="WE_0" edges="left0A0 A0B0 B0C0 C0right0" />
    <route id="WE_1" edges="left1A1 A1B1 B1C1 C1right1" />
    <route id="WE_2" edges="left2A2 A2B2 B2C2 C2right2" />
    <route id="SN_A" edges="bottom0A0 A0A1 A1A2 A2top0" />
    <route id="SN_B" edges="bottom1B0 B0B1 B1B2 B2top1" />
    <route id="SN_C" edges="bottom2C0 C0C1 C1C2 C2top2" />
    <route id="EW_0" edges="right0C0 C0B0 B0A0 A0left0" />
    <route id="EW_1" edges="right1C1 C1B1 B1A1 A1left1" />
    <route id="EW_2" edges="right2C2 C2B2 B2A2 A2left2" />
    <vehicle id="asym_0" type="car" depart="1.46" route="SN_A" />
    <vehicle id="asym_1" type="car" depart="2.06" route="WE_1" />
    <vehicle id="asym_2" type="car" depart="6.09" route="WE_1" />
    <vehicle id="asym_3" type="car" depart="9.63" route="EW_2" />
    <vehicle id="asym_4" type="car" depart="10.21" route="NS_B" />
    <vehicle id="asym_5" type="car" depart="12.76" route="SN_A" />
    <vehicle id="asym_6" type="car" depart="19.96" route="WE_0" />
    <vehicle id="asym_7" type="car" depart="21.23" route="WE_0" />
    <vehicle id="asym_8" type="car" depart="21.98" route="EW_1" />
    <vehicle id="asym_9" type="car" depart="23.40" route="WE_2" />
    <vehicle id="asym_10" type="car" depart="27.67" route="SN_A" />
    <vehicle id="asym_11" type="car" depart="27.83" route="NS_B" />
    <vehicle id="asym_12" type="car" depart="28.16" route="NS_C" />
    <vehicle id="asym_13" type="car" depart="33.83" route="NS_C" />
    <vehicle id="asym_14" type="car" depart="34.81" route="NS_C" />
    <vehicle id="asym_15" type="car" depart="36.54" route="WE_2" />
    <vehicle id="asym_16" type="car" depart="41.33" route="SN_B" />
    <vehicle id="asym_17" type="car" depart="50.11" route="WE_2" />
    <vehicle id="asym_18" type="car" depart="50.93" route="WE_2" />
    <vehicle id="asym_19" type="car" depart="53.50" route="NS_C" />
    <vehicle id="asym_20" type="car" depart="67.47" route="NS_B" />
    <vehicle id="asym_21" type="car" depart="69.78" route="NS_B" />
    <vehicle id="asym_22" type="car" depart="70.12" route="WE_1" />
    <vehicle id="asym_23" type="car" depart="73.37" route="WE_1" />
    <vehicle id="asym_24" type="car" depart="75.08" route="WE_1" />
    <vehicle id="asym_25" type="car" depart="76.89" route="WE_0" />
    <vehicle id="asym_26" type="car" depart="85.19" route="NS_B" />
    <vehicle id="asym_27" type="car" depart="87.93" route="NS_A" />
    <vehicle id="asym_28" type="car" depart="89.23" route="WE_2" />
    <vehicle id="asym_29" type="car" depart="90.04" route="WE_2" />
    <vehicle id="asym_30" type="car" depart="90.09" route="WE_2" />
    <vehicle id="asym_31" type="car" depart="92.44" route="EW_1" />
    <vehicle id="asym_32" type="car" depart="92.81" route="EW_2" />
    <vehicle id="asym_33" type="car" depart="94.51" route="WE_1" />
    <vehicle id="asym_34" type="car" depart="95.53" route="WE_2" />
    <vehicle id="asym_35" type="car" depart="97.08" route="NS_A" />
    <vehicle id="asym_36" type="car" depart="97.57" route="WE_1" />
    <vehicle id="asym_37" type="car" depart="103.32" route="EW_0" />
    <vehicle id="asym_38" type="car" depart="104.49" route="WE_0" />
    <vehicle id="asym_39" type="car" depart="107.27" route="NS_C" />
    <vehicle id="asym_40" type="car" depart="110.37" route="WE_1" />
    <vehicle id="asym_41" type="car" depart="115.56" route="WE_2" />
    <vehicle id="asym_42" type="car" depart="117.78" route="NS_B" />
    <vehicle id="asym_43" type="car" depart="129.24" route="EW_1" />
    <vehicle id="asym_44" type="car" depart="133.27" route="WE_1" />
    <vehicle id="asym_45" type="car" depart="143.50" route="WE_0" />
    <vehicle id="asym_46" type="car" depart="144.83" route="SN_C" />
    <vehicle id="asym_47" type="car" depart="152.29" route="NS_B" />
    <vehicle id="asym_48" type="car" depart="156.11" route="NS_C" />
    <vehicle id="asym_49" type="car" depart="157.13" route="WE_1" />
    <vehicle id="asym_50" type="car" depart="163.50" route="SN_C" />
    <vehicle id="asym_51" type="car" depart="164.97" route="EW_2" />
    <vehicle id="asym_52" type="car" depart="165.57" route="EW_1" />
    <vehicle id="asym_53" type="car" depart="169.62" route="NS_C" />
    <vehicle id="asym_54" type="car" depart="176.56" route="NS_B" />
    <vehicle id="asym_55" type="car" depart="180.79" route="NS_C" />
    <vehicle id="asym_56" type="car" depart="181.02" route="WE_1" />
    <vehicle id="asym_57" type="car" depart="182.12" route="NS_C" />
    <vehicle id="asym_58" type="car" depart="184.96" route="EW_1" />
    <vehicle id="asym_59" type="car" depart="188.64" route="WE_2" />
    <vehicle id="asym_60" type="car" depart="189.39" route="SN_A" />
    <vehicle id="asym_61" type="car" depart="192.99" route="WE_2" />
    <vehicle id="asym_62" type="car" depart="205.79" route="EW_2" />
    <vehicle id="asym_63" type="car" depart="208.53" route="NS_C" />
    <vehicle id="asym_64" type="car" depart="211.09" route="WE_1" />
    <vehicle id="asym_65" type="car" depart="218.97" route="NS_B" />
    <vehicle id="asym_66" type="car" depart="227.58" route="NS_A" />
    <vehicle id="asym_67" type="car" depart="228.70" route="NS_B" />
    <vehicle id="asym_68" type="car" depart="231.22" route="NS_A" />
    <vehicle id="asym_69" type="car" depart="236.46" route="NS_B" />
    <vehicle id="asym_70" type="car" depart="241.68" route="SN_A" />
    <vehicle id="asym_71" type="car" depart="246.31" route="WE_2" />
    <vehicle id="asym_72" type="car" depart="247.00" route="SN_C" />
    <vehicle id="asym_73" type="car" depart="249.17" route="NS_B" />
    <vehicle id="asym_74" type="car" depart="251.91" route="EW_2" />
    <vehicle id="asym_75" type="car" depart="255.09" route="NS_B" />
    <vehicle id="asym_76" type="car" depart="255.58" route="NS_A" />
    <vehicle id="asym_77" type="car" depart="257.08" route="SN_C" />
    <vehicle id="asym_78" type="car" depart="259.47" route="SN_A" />
    <vehicle id="asym_79" type="car" depart="261.16" route="SN_A" />
    <vehicle id="asym_80" type="car" depart="262.18" route="WE_2" />
    <vehicle id="asym_81" type="car" depart="263.74" route="SN_B" />
    <vehicle id="asym_82" type="car" depart="264.57" route="WE_2" />
    <vehicle id="asym_83" type="car" depart="266.70" route="SN_A" />
    <vehicle id="asym_84" type="car" depart="270.23" route="WE_1" />
    <vehicle id="asym_85" type="car" depart="270.88" route="EW_1" />
    <vehicle id="asym_86" type="car" depart="273.59" route="EW_0" />
    <vehicle id="asym_87" type="car" depart="278.94" route="WE_2" />
    <vehicle id="asym_88" type="car" depart="284.29" route="EW_1" />
    <vehicle id="asym_89" type="car" depart="287.25" route="SN_B" />
    <vehicle id="asym_90" type="car" depart="288.40" route="WE_1" />
    <vehicle id="asym_91" type="car" depart="289.59" route="EW_0" />
    <vehicle id="asym_92" type="car" depart="290.85" route="SN_A" />
    <vehicle id="asym_93" type="car" depart="294.86" route="EW_0" />
    <vehicle id="asym_94" type="car" depart="305.26" route="WE_1" />
    <vehicle id="asym_95" type="car" depart="305.85" route="WE_0" />
    <vehicle id="asym_96" type="car" depart="308.21" route="SN_C" />
    <vehicle id="asym_97" type="car" depart="308.35" route="EW_1" />
    <vehicle id="asym_98" type="car" depart="311.99" route="NS_A" />
    <vehicle id="asym_99" type="car" depart="312.98" route="NS_C" />
    <vehicle id="asym_100" type="car" depart="317.27" route="NS_B" />
    <vehicle id="asym_101" type="car" depart="324.48" route="NS_A" />
    <vehicle id="asym_102" type="car" depart="327.27" route="SN_B" />
    <vehicle id="asym_103" type="car" depart="328.47" route="EW_1" />
    <vehicle id="asym_104" type="car" depart="328.78" route="NS_C" />
    <vehicle id="asym_105" type="car" depart="332.27" route="WE_1" />
    <vehicle id="asym_106" type="car" depart="333.89" route="EW_1" />
    <vehicle id="asym_107" type="car" depart="334.99" route="NS_B" />
    <vehicle id="asym_108" type="car" depart="335.55" route="EW_2" />
    <vehicle id="asym_109" type="car" depart="335.63" route="WE_0" />
    <vehicle id="asym_110" type="car" depart="342.31" route="NS_B" />
    <vehicle id="asym_111" type="car" depart="347.63" route="EW_1" />
    <vehicle id="asym_112" type="car" depart="348.18" route="WE_0" />
    <vehicle id="asym_113" type="car" depart="348.95" route="SN_B" />
    <vehicle id="asym_114" type="car" depart="349.89" route="WE_0" />
    <vehicle id="asym_115" type="car" depart="354.30" route="EW_0" />
    <vehicle id="asym_116" type="car" depart="354.40" route="NS_A" />
    <vehicle id="asym_117" type="car" depart="356.48" route="WE_2" />
    <vehicle id="asym_118" type="car" depart="357.04" route="WE_1" />
    <vehicle id="asym_119" type="car" depart="357.68" route="NS_B" />
    <vehicle id="asym_120" type="car" depart="361.89" route="NS_A" />
    <vehicle id="asym_121" type="car" depart="363.61" route="NS_B" />
    <vehicle id="asym_122" type="car" depart="366.84" route="WE_2" />
    <vehicle id="asym_123" type="car" depart="370.06" route="WE_0" />
    <vehicle id="asym_124" type="car" depart="379.94" route="SN_B" />
    <vehicle id="asym_125" type="car" depart="383.71" route="WE_0" />
    <vehicle id="asym_126" type="car" depart="385.33" route="WE_2" />
    <vehicle id="asym_127" type="car" depart="389.14" route="NS_A" />
    <vehicle id="asym_128" type="car" depart="389.16" route="NS_A" />
    <vehicle id="asym_129" type="car" depart="389.59" route="WE_0" />
    <vehicle id="asym_130" type="car" depart="390.05" route="WE_0" />
    <vehicle id="asym_131" type="car" depart="390.25" route="WE_0" />
    <vehicle id="asym_132" type="car" depart="392.59" route="WE_1" />
    <vehicle id="asym_133" type="car" depart="394.74" route="NS_C" />
    <vehicle id="asym_134" type="car" depart="401.59" route="WE_2" />
    <vehicle id="asym_135" type="car" depart="409.74" route="WE_1" />
    <vehicle id="asym_136" type="car" depart="412.32" route="EW_0" />
    <vehicle id="asym_137" type="car" depart="414.61" route="WE_1" />
    <vehicle id="asym_138" type="car" depart="414.62" route="NS_A" />
    <vehicle id="asym_139" type="car" depart="415.23" route="WE_0" />
    <vehicle id="asym_140" type="car" depart="415.54" route="NS_C" />
    <vehicle id="asym_141" type="car" depart="422.88" route="WE_0" />
    <vehicle id="asym_142" type="car" depart="426.43" route="SN_C" />
    <vehicle id="asym_143" type="car" depart="430.40" route="SN_A" />
    <vehicle id="asym_144" type="car" depart="431.59" route="NS_C" />
    <vehicle id="asym_145" type="car" depart="434.36" route="NS_C" />
    <vehicle id="asym_146" type="car" depart="435.62" route="NS_C" />
    <vehicle id="asym_147" type="car" depart="435.80" route="WE_2" />
    <vehicle id="asym_148" type="car" depart="437.13" route="WE_0" />
    <vehicle id="asym_149" type="car" depart="439.77" route="SN_A" />
    <vehicle id="asym_150" type="car" depart="440.03" route="SN_B" />
    <vehicle id="asym_151" type="car" depart="447.67" route="NS_A" />
    <vehicle id="asym_152" type="car" depart="453.33" route="NS_A" />
    <vehicle id="asym_153" type="car" depart="454.40" route="EW_1" />
    <vehicle id="asym_154" type="car" depart="454.61" route="EW_2" />
    <vehicle id="asym_155" type="car" depart="458.24" route="WE_2" />
    <vehicle id="asym_156" type="car" depart="458.80" route="WE_0" />
    <vehicle id="asym_157" type="car" depart="459.46" route="SN_A" />
    <vehicle id="asym_158" type="car" depart="462.21" route="NS_A" />
    <vehicle id="asym_159" type="car" depart="467.97" route="EW_1" />
    <vehicle id="asym_160" type="car" depart="475.78" route="NS_B" />
    <vehicle id="asym_161" type="car" depart="476.32" route="WE_1" />
    <vehicle id="asym_162" type="car" depart="483.45" route="SN_B" />
    <vehicle id="asym_163" type="car" depart="488.39" route="NS_A" />
    <vehicle id="asym_164" type="car" depart="488.52" route="WE_1" />
    <vehicle id="asym_165" type="car" depart="494.05" route="WE_2" />
    <vehicle id="asym_166" type="car" depart="498.15" route="NS_A" />
    <vehicle id="asym_167" type="car" depart="503.20" route="SN_A" />
    <vehicle id="asym_168" type="car" depart="506.73" route="WE_0" />
    <vehicle id="asym_169" type="car" depart="510.75" route="WE_1" />
    <vehicle id="asym_170" type="car" depart="515.22" route="NS_B" />
    <vehicle id="asym_171" type="car" depart="520.88" route="WE_1" />
    <vehicle id="asym_172" type="car" depart="524.05" route="WE_2" />
    <vehicle id="asym_173" type="car" depart="531.20" route="WE_2" />
    <vehicle id="asym_174" type="car" depart="533.14" route="WE_1" />
    <vehicle id="asym_175" type="car" depart="534.94" route="NS_B" />
    <vehicle id="asym_176" type="car" depart="537.11" route="WE_1" />
    <vehicle id="asym_177" type="car" depart="548.58" route="NS_A" />
    <vehicle id="asym_178" type="car" depart="549.50" route="NS_C" />
    <vehicle id="asym_179" type="car" depart="550.22" route="WE_2" />
    <vehicle id="asym_180" type="car" depart="555.70" route="SN_C" />
    <vehicle id="asym_181" type="car" depart="556.28" route="NS_A" />
    <vehicle id="asym_182" type="car" depart="556.39" route="NS_C" />
    <vehicle id="asym_183" type="car" depart="557.27" route="WE_1" />
    <vehicle id="asym_184" type="car" depart="559.73" route="NS_A" />
    <vehicle id="asym_185" type="car" depart="565.41" route="NS_C" />
    <vehicle id="asym_186" type="car" depart="566.68" route="WE_1" />
    <vehicle id="asym_187" type="car" depart="566.76" route="EW_0" />
    <vehicle id="asym_188" type="car" depart="567.89" route="WE_2" />
    <vehicle id="asym_189" type="car" depart="568.71" route="WE_1" />
    <vehicle id="asym_190" type="car" depart="570.16" route="WE_0" />
    <vehicle id="asym_191" type="car" depart="588.25" route="WE_2" />
    <vehicle id="asym_192" type="car" depart="594.16" route="WE_1" />
    <vehicle id="asym_193" type="car" depart="597.32" route="WE_0" />
    <vehicle id="asym_194" type="car" depart="598.72" route="EW_0" />
    <vehicle id="asym_195" type="car" depart="604.04" route="SN_B" />
    <vehicle id="asym_196" type="car" depart="610.89" route="WE_2" />
    <vehicle id="asym_197" type="car" depart="611.94" route="NS_B" />
    <vehicle id="asym_198" type="car" depart="616.10" route="SN_A" />
    <vehicle id="asym_199" type="car" depart="625.73" route="EW_1" />
    <vehicle id="asym_200" type="car" depart="627.29" route="WE_1" />
    <vehicle id="asym_201" type="car" depart="628.19" route="NS_A" />
    <vehicle id="asym_202" type="car" depart="632.30" route="EW_1" />
    <vehicle id="asym_203" type="car" depart="632.50" route="NS_C" />
    <vehicle id="asym_204" type="car" depart="633.19" route="WE_0" />
    <vehicle id="asym_205" type="car" depart="642.84" route="SN_B" />
    <vehicle id="asym_206" type="car" depart="643.15" route="WE_2" />
    <vehicle id="asym_207" type="car" depart="645.99" route="NS_C" />
    <vehicle id="asym_208" type="car" depart="649.50" route="NS_B" />
    <vehicle id="asym_209" type="car" depart="653.36" route="EW_2" />
    <vehicle id="asym_210" type="car" depart="654.62" route="SN_C" />
    <vehicle id="asym_211" type="car" depart="663.71" route="WE_1" />
    <vehicle id="asym_212" type="car" depart="666.54" route="WE_0" />
    <vehicle id="asym_213" type="car" depart="668.97" route="EW_0" />
    <vehicle id="asym_214" type="car" depart="675.30" route="NS_B" />
    <vehicle id="asym_215" type="car" depart="679.15" route="NS_C" />
    <vehicle id="asym_216" type="car" depart="683.31" route="WE_1" />
    <vehicle id="asym_217" type="car" depart="684.75" route="SN_C" />
    <vehicle id="asym_218" type="car" depart="685.48" route="NS_A" />
    <vehicle id="asym_219" type="car" depart="693.30" route="NS_B" />
    <vehicle id="asym_220" type="car" depart="695.27" route="EW_2" />
    <vehicle id="asym_221" type="car" depart="698.82" route="WE_1" />
    <vehicle id="asym_222" type="car" depart="699.97" route="SN_C" />
    <vehicle id="asym_223" type="car" depart="715.82" route="NS_B" />
    <vehicle id="asym_224" type="car" depart="716.87" route="WE_1" />
    <vehicle id="asym_225" type="car" depart="717.18" route="WE_2" />
    <vehicle id="asym_226" type="car" depart="717.70" route="NS_C" />
    <vehicle id="asym_227" type="car" depart="724.14" route="WE_0" />
    <vehicle id="asym_228" type="car" depart="732.81" route="SN_A" />
    <vehicle id="asym_229" type="car" depart="732.95" route="WE_0" />
    <vehicle id="asym_230" type="car" depart="735.33" route="SN_C" />
    <vehicle id="asym_231" type="car" depart="744.60" route="NS_A" />
    <vehicle id="asym_232" type="car" depart="745.77" route="NS_C" />
    <vehicle id="asym_233" type="car" depart="748.04" route="NS_C" />
    <vehicle id="asym_234" type="car" depart="754.23" route="EW_0" />
    <vehicle id="asym_235" type="car" depart="756.28" route="NS_C" />
    <vehicle id="asym_236" type="car" depart="759.54" route="EW_1" />
    <vehicle id="asym_237" type="car" depart="759.69" route="NS_B" />
    <vehicle id="asym_238" type="car" depart="760.44" route="WE_0" />
    <vehicle id="asym_239" type="car" depart="761.98" route="WE_0" />
    <vehicle id="asym_240" type="car" depart="762.47" route="WE_2" />
    <vehicle id="asym_241" type="car" depart="763.63" route="NS_C" />
    <vehicle id="asym_242" type="car" depart="765.86" route="WE_2" />
    <vehicle id="asym_243" type="car" depart="767.36" route="NS_C" />
    <vehicle id="asym_244" type="car" depart="769.33" route="NS_A" />
    <vehicle id="asym_245" type="car" depart="769.49" route="NS_C" />
    <vehicle id="asym_246" type="car" depart="771.25" route="SN_B" />
    <vehicle id="asym_247" type="car" depart="774.08" route="WE_2" />
    <vehicle id="asym_248" type="car" depart="774.48" route="WE_2" />
    <vehicle id="asym_249" type="car" depart="777.42" route="NS_C" />
    <vehicle id="asym_250" type="car" depart="778.98" route="WE_2" />
    <vehicle id="asym_251" type="car" depart="784.67" route="EW_1" />
    <vehicle id="asym_252" type="car" depart="787.10" route="NS_C" />
    <vehicle id="asym_253" type="car" depart="789.55" route="WE_1" />
    <vehicle id="asym_254" type="car" depart="789.92" route="NS_A" />
    <vehicle id="asym_255" type="car" depart="792.78" route="NS_B" />
    <vehicle id="asym_256" type="car" depart="793.59" route="WE_0" />
    <vehicle id="asym_257" type="car" depart="793.94" route="NS_A" />
    <vehicle id="asym_258" type="car" depart="796.92" route="NS_C" />
    <vehicle id="asym_259" type="car" depart="797.75" route="NS_B" />
    <vehicle id="asym_260" type="car" depart="800.76" route="EW_0" />
    <vehicle id="asym_261" type="car" depart="803.56" route="SN_C" />
    <vehicle id="asym_262" type="car" depart="807.28" route="WE_1" />
    <vehicle id="asym_263" type="car" depart="808.71" route="NS_A" />
    <vehicle id="asym_264" type="car" depart="808.91" route="NS_A" />
    <vehicle id="asym_265" type="car" depart="812.47" route="NS_A" />
    <vehicle id="asym_266" type="car" depart="818.94" route="NS_B" />
    <vehicle id="asym_267" type="car" depart="819.34" route="EW_1" />
    <vehicle id="asym_268" type="car" depart="820.43" route="NS_A" />
    <vehicle id="asym_269" type="car" depart="822.58" route="SN_C" />
    <vehicle id="asym_270" type="car" depart="824.19" route="SN_A" />
    <vehicle id="asym_271" type="car" depart="824.57" route="SN_B" />
    <vehicle id="asym_272" type="car" depart="828.41" route="EW_1" />
    <vehicle id="asym_273" type="car" depart="832.54" route="WE_1" />
    <vehicle id="asym_274" type="car" depart="833.31" route="WE_0" />
    <vehicle id="asym_275" type="car" depart="838.05" route="EW_2" />
    <vehicle id="asym_276" type="car" depart="840.82" route="WE_0" />
    <vehicle id="asym_277" type="car" depart="841.76" route="NS_B" />
    <vehicle id="asym_278" type="car" depart="846.73" route="NS_B" />
    <vehicle id="asym_279" type="car" depart="853.94" route="WE_2" />
    <vehicle id="asym_280" type="car" depart="856.55" route="WE_1" />
    <vehicle id="asym_281" type="car" depart="856.82" route="WE_0" />
    <vehicle id="asym_282" type="car" depart="859.27" route="WE_1" />
    <vehicle id="asym_283" type="car" depart="861.47" route="SN_B" />
    <vehicle id="asym_284" type="car" depart="866.99" route="WE_1" />
    <vehicle id="asym_285" type="car" depart="876.85" route="NS_C" />
    <vehicle id="asym_286" type="car" depart="877.43" route="NS_C" />
    <vehicle id="asym_287" type="car" depart="877.91" route="NS_B" />
    <vehicle id="asym_288" type="car" depart="878.34" route="WE_2" />
    <vehicle id="asym_289" type="car" depart="881.43" route="NS_C" />
    <vehicle id="asym_290" type="car" depart="886.38" route="WE_0" />
    <vehicle id="asym_291" type="car" depart="887.86" route="NS_A" />
    <vehicle id="asym_292" type="car" depart="890.06" route="WE_1" />
    <vehicle id="asym_293" type="car" depart="895.16" route="WE_1" />
    <vehicle id="asym_294" type="car" depart="897.11" route="SN_A" />
    <vehicle id="asym_295" type="car" depart="898.31" route="WE_1" />
    <vehicle id="asym_296" type="car" depart="899.30" route="WE_0" />
    <vehicle id="asym_297" type="car" depart="900.35" route="NS_C" />
    <vehicle id="asym_298" type="car" depart="901.32" route="NS_B" />
    <vehicle id="asym_299" type="car" depart="902.36" route="WE_0" />
    <vehicle id="asym_300" type="car" depart="905.05" route="WE_2" />
    <vehicle id="asym_301" type="car" depart="908.18" route="NS_C" />
    <vehicle id="asym_302" type="car" depart="914.32" route="NS_B" />
    <vehicle id="asym_303" type="car" depart="917.00" route="EW_2" />
    <vehicle id="asym_304" type="car" depart="919.18" route="SN_C" />
    <vehicle id="asym_305" type="car" depart="919.87" route="NS_C" />
    <vehicle id="asym_306" type="car" depart="925.09" route="WE_2" />
    <vehicle id="asym_307" type="car" depart="933.09" route="WE_1" />
    <vehicle id="asym_308" type="car" depart="943.04" route="SN_B" />
    <vehicle id="asym_309" type="car" depart="945.87" route="NS_A" />
    <vehicle id="asym_310" type="car" depart="948.20" route="EW_2" />
    <vehicle id="asym_311" type="car" depart="950.34" route="NS_C" />
    <vehicle id="asym_312" type="car" depart="953.57" route="EW_2" />
    <vehicle id="asym_313" type="car" depart="954.20" route="NS_B" />
    <vehicle id="asym_314" type="car" depart="954.72" route="NS_C" />
    <vehicle id="asym_315" type="car" depart="954.73" route="SN_C" />
    <vehicle id="asym_316" type="car" depart="955.68" route="WE_2" />
    <vehicle id="asym_317" type="car" depart="960.50" route="NS_B" />
    <vehicle id="asym_318" type="car" depart="960.57" route="NS_C" />
    <vehicle id="asym_319" type="car" depart="961.12" route="SN_B" />
    <vehicle id="asym_320" type="car" depart="962.81" route="NS_C" />
    <vehicle id="asym_321" type="car" depart="963.87" route="NS_C" />
    <vehicle id="asym_322" type="car" depart="966.22" route="EW_0" />
    <vehicle id="asym_323" type="car" depart="970.24" route="NS_B" />
    <vehicle id="asym_324" type="car" depart="972.30" route="NS_A" />
    <vehicle id="asym_325" type="car" depart="975.30" route="WE_0" />
    <vehicle id="asym_326" type="car" depart="978.17" route="WE_2" />
    <vehicle id="asym_327" type="car" depart="979.57" route="EW_2" />
    <vehicle id="asym_328" type="car" depart="980.45" route="SN_C" />
    <vehicle id="asym_329" type="car" depart="983.40" route="NS_A" />
    <vehicle id="asym_330" type="car" depart="984.33" route="WE_2" />
    <vehicle id="asym_331" type="car" depart="987.52" route="WE_1" />
    <vehicle id="asym_332" type="car" depart="988.13" route="NS_A" />
    <vehicle id="asym_333" type="car" depart="988.55" route="WE_2" />
    <vehicle id="asym_334" type="car" depart="990.06" route="NS_B" />
    <vehicle id="asym_335" type="car" depart="990.11" route="WE_2" />
    <vehicle id="asym_336" type="car" depart="994.49" route="WE_2" />
    <vehicle id="asym_337" type="car" depart="994.57" route="NS_B" />
    <vehicle id="asym_338" type="car" depart="996.05" route="NS_A" />
    <vehicle id="asym_339" type="car" depart="1000.70" route="NS_B" />
    <vehicle id="asym_340" type="car" depart="1002.76" route="NS_B" />
    <vehicle id="asym_341" type="car" depart="1004.85" route="SN_C" />
    <vehicle id="asym_342" type="car" depart="1018.22" route="NS_C" />
    <vehicle id="asym_343" type="car" depart="1018.80" route="WE_1" />
    <vehicle id="asym_344" type="car" depart="1019.69" route="NS_C" />
    <vehicle id="asym_345" type="car" depart="1028.62" route="NS_A" />
    <vehicle id="asym_346" type="car" depart="1030.30" route="WE_2" />
    <vehicle id="asym_347" type="car" depart="1032.89" route="WE_1" />
    <vehicle id="asym_348" type="car" depart="1037.58" route="SN_A" />
    <vehicle id="asym_349" type="car" depart="1039.00" route="NS_B" />
    <vehicle id="asym_350" type="car" depart="1041.80" route="EW_0" />
    <vehicle id="asym_351" type="car" depart="1048.53" route="NS_B" />
    <vehicle id="asym_352" type="car" depart="1056.12" route="WE_2" />
    <vehicle id="asym_353" type="car" depart="1062.40" route="WE_0" />
    <vehicle id="asym_354" type="car" depart="1062.83" route="SN_B" />
    <vehicle id="asym_355" type="car" depart="1064.36" route="EW_2" />
    <vehicle id="asym_356" type="car" depart="1068.15" route="NS_A" />
    <vehicle id="asym_357" type="car" depart="1074.40" route="WE_2" />
    <vehicle id="asym_358" type="car" depart="1074.80" route="NS_A" />
    <vehicle id="asym_359" type="car" depart="1077.76" route="WE_2" />
    <vehicle id="asym_360" type="car" depart="1079.99" route="NS_A" />
    <vehicle id="asym_361" type="car" depart="1081.16" route="NS_B" />
    <vehicle id="asym_362" type="car" depart="1083.42" route="NS_B" />
    <vehicle id="asym_363" type="car" depart="1085.11" route="NS_A" />
    <vehicle id="asym_364" type="car" depart="1087.88" route="NS_C" />
    <vehicle id="asym_365" type="car" depart="1093.81" route="EW_0" />
    <vehicle id="asym_366" type="car" depart="1095.71" route="WE_1" />
    <vehicle id="asym_367" type="car" depart="1098.69" route="WE_0" />
    <vehicle id="asym_368" type="car" depart="1099.37" route="SN_B" />
    <vehicle id="asym_369" type="car" depart="1102.34" route="NS_C" />
    <vehicle id="asym_370" type="car" depart="1107.05" route="NS_A" />
    <vehicle id="asym_371" type="car" depart="1107.40" route="WE_0" />
    <vehicle id="asym_372" type="car" depart="1109.73" route="WE_2" />
    <vehicle id="asym_373" type="car" depart="1112.16" route="EW_0" />
    <vehicle id="asym_374" type="car" depart="1112.34" route="EW_0" />
    <vehicle id="asym_375" type="car" depart="1113.42" route="WE_0" />
    <vehicle id="asym_376" type="car" depart="1122.18" route="EW_0" />
    <vehicle id="asym_377" type="car" depart="1123.05" route="EW_1" />
    <vehicle id="asym_378" type="car" depart="1129.24" route="SN_A" />
    <vehicle id="asym_379" type="car" depart="1130.10" route="EW_1" />
    <vehicle id="asym_380" type="car" depart="1132.26" route="EW_0" />
    <vehicle id="asym_381" type="car" depart="1132.84" route="NS_C" />
    <vehicle id="asym_382" type="car" depart="1135.63" route="NS_B" />
    <vehicle id="asym_383" type="car" depart="1138.24" route="NS_C" />
    <vehicle id="asym_384" type="car" depart="1139.98" route="WE_1" />
    <vehicle id="asym_385" type="car" depart="1150.95" route="EW_0" />
    <vehicle id="asym_386" type="car" depart="1158.40" route="EW_1" />
    <vehicle id="asym_387" type="car" depart="1160.36" route="NS_A" />
    <vehicle id="asym_388" type="car" depart="1163.79" route="NS_C" />
    <vehicle id="asym_389" type="car" depart="1165.58" route="WE_1" />
    <vehicle id="asym_390" type="car" depart="1166.96" route="SN_A" />
    <vehicle id="asym_391" type="car" depart="1169.17" route="SN_B" />
    <vehicle id="asym_392" type="car" depart="1170.67" route="WE_0" />
    <vehicle id="asym_393" type="car" depart="1176.64" route="NS_C" />
    <vehicle id="asym_394" type="car" depart="1181.24" route="EW_1" />
    <vehicle id="asym_395" type="car" depart="1181.74" route="WE_0" />
    <vehicle id="asym_396" type="car" depart="1182.81" route="WE_0" />
    <vehicle id="asym_397" type="car" depart="1186.73" route="NS_A" />
    <vehicle id="asym_398" type="car" depart="1187.29" route="WE_0" />
    <vehicle id="asym_399" type="car" depart="1188.72" route="NS_B" />
    <vehicle id="asym_400" type="car" depart="1190.85" route="NS_B" />
    <vehicle id="asym_401" type="car" depart="1195.87" route="EW_1" />
    <vehicle id="asym_402" type="car" depart="1199.91" route="WE_2" />
    <vehicle id="asym_403" type="car" depart="1206.68" route="NS_C" />
    <vehicle id="asym_404" type="car" depart="1210.07" route="WE_0" />
    <vehicle id="asym_405" type="car" depart="1211.74" route="NS_A" />
    <vehicle id="asym_406" type="car" depart="1217.11" route="WE_0" />
    <vehicle id="asym_407" type="car" depart="1218.82" route="WE_2" />
    <vehicle id="asym_408" type="car" depart="1219.37" route="EW_2" />
    <vehicle id="asym_409" type="car" depart="1220.15" route="SN_C" />
    <vehicle id="asym_410" type="car" depart="1221.49" route="NS_B" />
    <vehicle id="asym_411" type="car" depart="1223.37" route="WE_0" />
    <vehicle id="asym_412" type="car" depart="1224.90" route="NS_A" />
    <vehicle id="asym_413" type="car" depart="1225.22" route="WE_1" />
    <vehicle id="asym_414" type="car" depart="1227.23" route="SN_C" />
    <vehicle id="asym_415" type="car" depart="1228.43" route="WE_2" />