<?xml version='1.0' encoding='UTF-8'?>
<routes xmlns:xsi="http://www.w3.org/2001/XMLSchema-instance">
    <vType id="car" accel="2.6" decel="4.5" sigma="0.5" length="5" maxSpeed="16.67" />
    <route id="NS_A" edges="top0A2 A2A1 A1A0 A0bottom0" />
    <route id="NS_B" edges="top1B2 B2B1 B1B0 B0bottom1" />
    <route id="NS_C" edges="top2C2 C2C1 C1C0 C0bottom2" />
    <route id="WE_0" edges="left0A0 A0B0 B0C0 C0right0" />
    <route id="WE_1" edges="left1A1 A1B1 B1C1 C1right1" />
    <route id="WE_2" edges="left2A2 A2B2 B2C2 C2right2" />
    <route id="SN_A" edges="bottom0A0 A0A1 A1A2 A2top0" />
    <route id="SN_B" edges="bottom1B0 B0B1 B1B2 B2top1" />
    <route id="SN_C" edges="bottom2C0 C0C1 C1C2 C2top2" />
    <route id="EW_0" edges="right0C0 C0B0 B0A0 A0left0" />
    <route id="EW_1" edges="right1C1 C1B1 B1A1 A1left1" />
    <route id="EW_2" edges="right2C2 C2B2 B2A2 A2left2" />
    <vehicle id="extreme_0" type="car" depart="1.46" route="WE_0" />
    <vehicle id="extreme_1" type="car" depart="2.06" route="NS_B" />
    <vehicle id="extreme_2" type="car" depart="6.09" route="WE_1" />
    <vehicle id="extreme_3" type="car" depart="9.63" route="WE_2" />
    <vehicle id="extreme_4" type="car" depart="10.21" route="NS_B" />
    <vehicle id="extreme_5" type="car" depart="12.76" route="WE_0" />
    <vehicle id="extreme_6" type="car" depart="19.96" route="WE_0" />
    <vehicle id="extreme_7" type="car" depart="21.23" route="WE_0" />
    <vehicle id="extreme_8" type="car" depart="21.98" route="SN_B" />
    <vehicle id="extreme_9" type="car" depart="23.40" route="NS_C" />
    <vehicle id="extreme_10" type="car" depart="27.67" route="WE_0" />
    <vehicle id="extreme_11" type="car" depart="27.83" route="NS_B" />
    <vehicle id="extreme_12" type="car" depart="28.16" route="NS_C" />
    <vehicle id="extreme_13" type="car" depart="33.83" route="NS_C" />
    <vehicle id="extreme_14" type="car" depart="34.81" route="NS_C" />
    <vehicle id="extreme_15" type="car" depart="36.54" route="WE_2" />
    <vehicle id="extreme_16" type="car" depart="41.33" route="WE_1" />
    <vehicle id="extreme_17" type="car" depart="50.11" route="WE_2" />
    <vehicle id="extreme_18" type="car" depart="50.93" route="WE_2" />
    <vehicle id="extreme_19" type="car" depart="53.50" route="NS_C" />
    <vehicle id="extreme_20" type="car" depart="67.47" route="NS_B" />
    <vehicle id="extreme_21" type="car" depart="69.78" route="NS_B" />
    <vehicle id="extreme_22" type="car" depart="70.12" route="WE_1" />
    <vehicle id="extreme_23" type="car" depart="73.37" route="WE_1" />
    <vehicle id="extreme_24" type="car" depart="75.08" route="WE_1" />
    <vehicle id="extreme_25" type="car" depart="76.89" route="WE_0" />
    <vehicle id="extreme_26" type="car" depart="85.19" route="NS_B" />
    <vehicle id="extreme_27" type="car" depart="87.93" route="NS_A" />
    <vehicle id="extreme_28" type="car" depart="89.23" route="WE_2" />
    <vehicle id="extreme_29" type="car" depart="90.04" route="NS_C" />
    <vehicle id="extreme_30" type="car" depart="90.09" route="WE_2" />
    <vehicle id="extreme_31" type="car" depart="92.44" route="WE_1" />
    <vehicle id="extreme_32" type="car" depart="92.81" route="SN_C" />
    <vehicle id="extreme_33" type="car" depart="94.51" route="WE_1" />
    <vehicle id="extreme_34" type="car" depart="95.53" route="WE_2" />
    <vehicle id="extreme_35" type="car" depart="97.08" route="NS_A" />
    <vehicle id="extreme_36" type="car" depart="97.57" route="WE_1" />
    <vehicle id="extreme_37" type="car" depart="103.32" route="EW_0" />
    <vehicle id="extreme_38" type="car" depart="104.49" route="WE_0" />
    <vehicle id="extreme_39" type="car" depart="107.27" route="NS_C" />
    <vehicle id="extreme_40" type="car" depart="110.37" route="NS_B" />
    <vehicle id="extreme_41" type="car" depart="115.56" route="WE_2" />
    <vehicle id="extreme_42" type="car" depart="117.78" route="NS_B" />
    <vehicle id="extreme_43" type="car" depart="129.24" route="SN_B" />
    <vehicle id="extreme_44" type="car" depart="133.27" route="NS_B" />
    <vehicle id="extreme_45" type="car" depart="143.50" route="WE_0" />
    <vehicle id="extreme_46" type="car" depart="144.83" route="WE_2" />
    <vehicle id="extreme_47" type="car" depart="152.29" route="NS_B" />
    <vehicle id="extreme_48" type="car" depart="156.11" route="NS_C" />
    <vehicle id="extreme_49" type="car" depart="157.13" route="NS_B" />
    <vehicle id="extreme_50" type="car" depart="163.50" route="WE_2" />
    <vehicle id="extreme_51" type="car" depart="164.97" route="EW_2" />
    <vehicle id="extreme_52" type="car" depart="165.57" route="WE_1" />
    <vehicle id="extreme_53" type="car" depart="169.62" route="NS_C" />
    <vehicle id="extreme_54" type="car" depart="176.56" route="NS_B" />
    <vehicle id="extreme_55" type="car" depart="180.79" route="NS_C" />
    <vehicle id="extreme_56" type="car" depart="181.02" route="WE_1" />
    <vehicle id="extreme_57" type="car" depart="182.12" route="NS_C" />
    <vehicle id="extreme_58" type="car" depart="184.96" route="SN_B" />
    <vehicle id="extreme_59" type="car" depart="188.64" route="WE_2" />
    <vehicle id="extreme_60" type="car" depart="189.39" route="WE_0" />
    <vehicle id="extreme_61" type="car" depart="192.99" route="WE_2" />
    <vehicle id="extreme_62" type="car" depart="205.79" route="EW_2" />
    <vehicle id="extreme_63" type="car" depart="208.53" route="NS_C" />
    <vehicle id="extreme_64" type="car" depart="211.09" route="NS_B" />
    <vehicle id="extreme_65" type="car" depart="218.97" route="NS_B" />
    <vehicle id="extreme_66" type="car" depart="227.58" route="NS_A" />
    <vehicle id="extreme_67" type="car" depart="228.70" route="NS_B" />
    <vehicle id="extreme_68" type="car" depart="231.22" route="NS_A" />
    <vehicle id="extreme_69" type="car" depart="236.46" route="NS_B" />
    <vehicle id="extreme_70" type="car" depart="241.68" route="WE_0" />
    <vehicle id="extreme_71" type="car" depart="246.31" route="WE_2" />
    <vehicle id="extreme_72" type="car" depart="247.00" route="WE_2" />
    <vehicle id="extreme_73" type="car" depart="249.17" route="NS_B" />
    <vehicle id="extreme_74" type="car" depart="251.91" route="WE_2" />
    <vehicle id="extreme_75" type="car" depart="255.09" route="NS_B" />
    <vehicle id="extreme_76" type="car" depart="255.58" route="NS_A" />
    <vehicle id="extreme_77" type="car" depart="257.08" route="WE_2" />
    <vehicle id="extreme_78" type="car" depart="259.47" route="WE_0" />
    <vehicle id="extreme_79" type="car" depart="261.16" route="WE_0" />
    <vehicle id="extreme_80" type="car" depart="262.18" route="NS_C" />
    <vehicle id="extreme_81" type="car" depart="263.74" route="WE_1" />
    <vehicle id="extreme_82" type="car" depart="264.57" route="WE_2" />
    <vehicle id="extreme_83" type="car" depart="266.70" route="WE_0" />
    <vehicle id="extreme_84" type="car" depart="270.23" route="WE_1" />
    <vehicle id="extreme_85" type="car" depart="270.88" route="EW_1" />
    <vehicle id="extreme_86" type="car" depart="273.59" route="SN_A" />
    <vehicle id="extreme_87" type="car" depart="278.94" route="NS_C" />
    <vehicle id="extreme_88" type="car" depart="284.29" route="EW_1" />
    <vehicle id="extreme_89" type="car" depart="287.25" route="WE_1" />
    <vehicle id="extreme_90" type="car" depart="288.40" route="WE_1" />
    <vehicle id="extreme_91" type="car" depart="289.59" route="EW_0" />
    <vehicle id="extreme_92" type="car" depart="290.85" route="WE_0" />
    <vehicle id="extreme_93" type="car" depart="294.86" route="WE_0" />
    <vehicle id="extreme_94" type="car" depart="305.26" route="WE_1" />
    <vehicle id="extreme_95" type="car" depart="305.85" route="WE_0" />
    <vehicle id="extreme_96" type="car" depart="308.21" route="WE_2" />
    <vehicle id="extreme_97" type="car" depart="308.35" route="WE_1" />
    <vehicle id="extreme_98" type="car" depart="311.99" route="NS_A" />
    <vehicle id="extreme_99" type="car" depart="312.98" route="NS_C" />
    <vehicle id="extreme_100" type="car" depart="317.27" route="NS_B" />
    <vehicle id="extreme_101" type="car" depart="324.48" route="NS_A" />
    <vehicle id="extreme_102" type="car" depart="327.27" route="WE_1" />
    <vehicle id="extreme_103" type="car" depart="328.47" route="SN_B" />
    <vehicle id="extreme_104" type="car" depart="328.78" route="NS_C" />
    <vehicle id="extreme_105" type="car" depart="332.27" route="NS_B" />
    <vehicle id="extreme_106" type="car" depart="333.89" route="EW_1" />
    <vehicle id="extreme_107" type="car" depart="334.99" route="NS_B" />
    <vehicle id="extreme_108" type="car" depart="335.55" route="SN_C" />
    <vehicle id="extreme_109" type="car" depart="335.63" route="WE_0" />
    <vehicle id="extreme_110" type="car" depart="342.31" route="NS_B" />
    <vehicle id="extreme_111" type="car" depart="347.63" route="SN_B" />
    <vehicle id="extreme_112" type="car" depart="348.18" route="WE_0" />
    <vehicle id="extreme_113" type="car" depart="348.95" route="WE_1" />
    <vehicle id="extreme_114" type="car" depart="349.89" route="NS_A" />
    <vehicle id="extreme_115" type="car" depart="354.30" route="SN_A" />
    <vehicle id="extreme_116" type="car" depart="354.40" route="NS_A" />
    <vehicle id="extreme_117" type="car" depart="356.48" route="WE_2" />
    <vehicle id="extreme_118" type="car" depart="357.04" route="WE_1" />
    <vehicle id="extreme_119" type="car" depart="357.68" route="NS_B" />
    <vehicle id="extreme_120" type="car" depart="361.89" route="NS_A" />
    <vehicle id="extreme_121" type="car" depart="363.61" route="NS_B" />
    <vehicle id="extreme_122" type="car" depart="366.84" route="WE_2" />
    <vehicle id="extreme_123" type="car" depart="370.06" route="WE_0" />
    <vehicle id="extreme_124" type="car" depart="379.94" route="WE_1" />
    <vehicle id="extreme_125" type="car" depart="383.71" route="WE_0" />
    <vehicle id="extreme_126" type="car" depart="385.33" route="WE_2" />
    <vehicle id="extreme_127" type="car" depart="389.14" route="NS_A" />
    <vehicle id="extreme_128" type="car" depart="389.16" route="NS_A" />
    <vehicle id="extreme_129" type="car" depart="389.59" route="WE_0" />
    <vehicle id="extreme_130" type="car" depart="390.05" route="WE_0" />
    <vehicle id="extreme_131" type="car" depart="390.25" route="WE_0" />
    <vehicle id="extreme_132" type="car" depart="392.59" route="WE_1" />
    <vehicle id="extreme_133" type="car" depart="394.74" route="NS_C" />
    <vehicle id="extreme_134" type="car" depart="401.59" route="WE_2" />
    <vehicle id="extreme_135" type="car" depart="409.74" route="WE_1" />
    <vehicle id="extreme_136" type="car" depart="412.32" route="WE_0" />
    <vehicle id="extreme_137" type="car" depart="414.61" route="WE_1" />
    <vehicle id="extreme_138" type="car" depart="414.62" route="NS_A" />
    <vehicle id="extreme_139" type="car" depart="415.23" route="NS_A" />
    <vehicle id="extreme_140" type="car" depart="415.54" route="NS_C" />
    <vehicle id="extreme_141" type="car" depart="422.88" route="WE_0" />
    <vehicle id="extreme_142" type="car" depart="426.43" route="WE_2" />
    <vehicle id="extreme_143" type="car" depart="430.40" route="WE_0" />
    <vehicle id="extreme_144" type="car" depart="431.59" route="NS_C" />
    <vehicle id="extreme_145" type="car" depart="434.36" route="NS_C" />
    <vehicle id="extreme_146" type="car" depart="435.62" route="NS_C" />
    <vehicle id="extreme_147" type="car" depart="435.80" route="WE_2" />
    <vehicle id="extreme_148" type="car" depart="437.13" route="WE_0" />
    <vehicle id="extreme_149" type="car" depart="439.77" route="WE_0" />
    <vehicle id="extreme_150" type="car" depart="440.03" route="WE_1" />
    <vehicle id="extreme_151" type="car" depart="447.67" route="NS_A" />
    <vehicle id="extreme_152" type="car" depart="453.33" route="NS_A" />
    <vehicle id="extreme_153" type="car" depart="454.40" route="WE_1" />
    <vehicle id="extreme_154" type="car" depart="454.61" route="SN_C" />
    <vehicle id="extreme_155" type="car" depart="458.24" route="NS_C" />
    <vehicle id="extreme_156" type="car" depart="458.80" route="WE_0" />
    <vehicle id="extreme_157" type="car" depart="459.46" route="WE_0" />
    <vehicle id="extreme_158" type="car" depart="462.21" route="NS_A" />
    <vehicle id="extreme_159" type="car" depart="467.97" route="WE_1" />
    <vehicle id="extreme_160" type="car" depart="475.78" route="NS_B" />
    <vehicle id="extreme_161" type="car" depart="476.32" route="NS_B" />
    <vehicle id="extreme_162" type="car" depart="483.45" route="WE_1" />
    <vehicle id="extreme_163" type="car" depart="488.39" route="NS_A" />
    <vehicle id="extreme_164" type="car" depart="488.52" route="WE_1" />
    <vehicle id="extreme_165" type="car" depart="494.05" route="NS_C" />
    <vehicle id="extreme_166" type="car" depart="498.15" route="NS_A" />
    <vehicle id="extreme_167" type="car" depart="503.20" route="WE_0" />
    <vehicle id="extreme_168" type="car" depart="506.73" route="NS_A" />
    <vehicle id="extreme_169" type="car" depart="510.75" route="WE_1" />
    <vehicle id="extreme_170" type="car" depart="515.22" route="NS_B" />
    <vehicle id="extreme_171" type="car" depart="520.88" route="WE_1" />
    <vehicle id="extreme_172" type="car" depart="524.05" route="NS_C" />
    <vehicle id="extreme_173" type="car" depart="531.20" route="NS_C" />
    <vehicle id="extreme_174" type="car" depart="533.14" route="NS_B" />
    <vehicle id="extreme_175" type="car" depart="534.94" route="NS_B" />
    <vehicle id="extreme_176" type="car" depart="537.11" route="WE_1" />
    <vehicle id="extreme_177" type="car" depart="548.58" route="NS_A" />
    <vehicle id="extreme_178" type="car" depart="549.50" route="NS_C" />
    <vehicle id="extreme_179" type="car" depart="550.22" route="NS_C" />
    <vehicle id="extreme_180" type="car" depart="555.70" route="WE_2" />
    <vehicle id="extreme_181" type="car" depart="556.28" route="NS_A" />
    <vehicle id="extreme_182" type="car" depart="556.39" route="NS_C" />
    <vehicle id="extreme_183" type="car" depart="557.27" route="WE_1" />
    <vehicle id="extreme_184" type="car" depart="559.73" route="NS_A" />
    <vehicle id="extreme_185" type="car" depart="565.41" route="NS_C" />
    <vehicle id="extreme_186" type="car" depart="566.68" route="NS_B" />
    <vehicle id="extreme_187" type="car" depart="566.76" route="SN_A" />
    <vehicle id="extreme_188" type="car" depart="567.89" route="WE_2" />
    <vehicle id="extreme_189" type="car" depart="568.71" route="NS_B" />
    <vehicle id="extreme_190" type="car" depart="570.16" route="NS_A" />
    <vehicle id="extreme_191" type="car" depart="588.25" route="WE_2" />
    <vehicle id="extreme_192" type="car" depart="594.16" route="NS_B" />
    <vehicle id="extreme_193" type="car" depart="597.32" route="WE_0" />
    <vehicle id="extreme_194" type="car" depart="598.72" route="EW_0" />
    <vehicle id="extreme_195" type="car" depart="604.04" route="WE_1" />
    <vehicle id="extreme_196" type="car" depart="610.89" route="WE_2" />
    <vehicle id="extreme_197" type="car" depart="611.94" route="NS_B" />
    <vehicle id="extreme_198" type="car" depart="616.10" route="WE_0" />
    <vehicle id="extreme_199" type="car" depart="625.73" route="EW_1" />
    <vehicle id="extreme_200" type="car" depart="627.29" route="WE_1" />
    <vehicle id="extreme_201" type="car" depart="628.19" route="NS_A" />
    <vehicle id="extreme_202" type="car" depart="632.30" route="WE_1" />
    <vehicle id="extreme_203" type="car" depart="632.50" route="NS_C" />
    <vehicle id="extreme_204" type="car" depart="633.19" route="NS_A" />
    <vehicle id="extreme_205" type="car" depart="642.84" route="WE_1" />
    <vehicle id="extreme_206" type="car" depart="643.15" route="WE_2" />
    <vehicle id="extreme_207" type="car" depart="645.99" route="NS_C" />
    <vehicle id="extreme_208" type="car" depart="649.50" route="NS_B" />
    <vehicle id="extreme_209" type="car" depart="653.36" route="WE_2" />
    <vehicle id="extreme_210" type="car" depart="654.62" route="WE_2" />
    <vehicle id="extreme_211" type="car" depart="663.71" route="WE_1" />
    <vehicle id="extreme_212" type="car" depart="666.54" route="WE_0" />
    <vehicle id="extreme_213" type="car" depart="668.97" route="EW_0" />
    <vehicle id="extreme_214" type="car" depart="675.30" route="NS_B" />
    <vehicle id="extreme_215" type="car" depart="679.15" route="NS_C" />
    <vehicle id="extreme_216" type="car" depart="683.31" route="WE_1" />
    <vehicle id="extreme_217" type="car" depart="684.75" route="WE_2" />
    <vehicle id="extreme_218" type="car" depart="685.48" route="NS_A" />
    <vehicle id="extreme_219" type="car" depart="693.30" route="NS_B" />
    <vehicle id="extreme_220" type="car" depart="695.27" route="EW_2" />
    <vehicle id="extreme_221" type="car" depart="698.82" route="WE_1" />
    <vehicle id="extreme_222" type="car" depart="699.97" route="WE_2" />
    <vehicle id="extreme_223" type="car" depart="715.82" route="NS_B" />
    <vehicle id="extreme_224" type="car" depart="716.87" route="WE_1" />
    <vehicle id="extreme_225" type="car" depart="717.18" route="WE_2" />
    <vehicle id="extreme_226" type="car" depart="717.70" route="NS_C" />
    <vehicle id="extreme_227" type="car" depart="724.14" route="WE_0" />
    <vehicle id="extreme_228" type="car" depart="732.81" route="WE_0" />
    <vehicle id="extreme_229" type="car" depart="732.95" route="NS_A" />
    <vehicle id="extreme_230" type="car" depart="735.33" route="WE_2" />
    <vehicle id="extreme_231" type="car" depart="744.60" route="NS_A" />
    <vehicle id="extreme_232" type="car" depart="745.77" route="NS_C" />
    <vehicle id="extreme_233" type="car" depart="748.04" route="NS_C" />
    <vehicle id="extreme_234" type="car" depart="754.23" route="WE_0" />
    <vehicle id="extreme_235" type="car" depart="756.28" route="NS_C" />
    <vehicle id="extreme_236" type="car" depart="759.54" route="EW_1" />
    <vehicle id="extreme_237" type="car" depart="759.69" route="NS_B" />
    <vehicle id="extreme_238" type="car" depart="760.44" route="WE_0" />
    <vehicle id="extreme_239" type="car" depart="761.98" route="WE_0" />
    <vehicle id="extreme_240" type="car" depart="762.47" route="WE_2" />
    <vehicle id="extreme_241" type="car" depart="763.63" route="NS_C" />
    <vehicle id="extreme_242" type="car" depart="765.86" route="WE_2" />
    <vehicle id="extreme_243" type="car" depart="767.36" route="NS_C" />
    <vehicle id="extreme_244" type="car" depart="769.33" route="NS_A" />
    <vehicle id="extreme_245" type="car" depart="769.49" route="NS_C" />
    <vehicle id="extreme_246" type="car" depart="771.25" route="WE_1" />
    <vehicle id="extreme_247" type="car" depart="774.08" route="WE_2" />
    <vehicle id="extreme_248" type="car" depart="774.48" route="NS_C" />
    <vehicle id="extreme_249" type="car" depart="777.42" route="NS_C" />
    <vehicle id="extreme_250" type="car" depart="778.98" route="WE_2" />
    <vehicle id="extreme_251" type="car" depart="784.67" route="EW_1" />
    <vehicle id="extreme_252" type="car" depart="787.10" route="NS_C" />
    <vehicle id="extreme_253" type="car" depart="789.55" route="NS_B" />
    <vehicle id="extreme_254" type="car" depart="789.92" route="NS_A" />
    <vehicle id="extreme_255" type="car" depart="792.78" route="NS_B" />
    <vehicle id="extreme_256" type="car" depart="793.59" route="WE_0" />
    <vehicle id="extreme_257" type="car" depart="793.94" route="NS_A" />
    <vehicle id="extreme_258" type="car" depart="796.92" route="NS_C" />
    <vehicle id="extreme_259" type="car" depart="797.75" route="NS_B" />
    <vehicle id="extreme_260" type="car" depart="800.76" route="EW_0" />
    <vehicle id="extreme_261" type="car" depart="803.56" route="WE_2" />
    <vehicle id="extreme_262" type="car" depart="807.28" route="WE_1" />
    <vehicle id="extreme_263" type="car" depart="808.71" route="NS_A" />
    <vehicle id="extreme_264" type="car" depart="808.91" route="NS_A" />
    <vehicle id="extreme_265" type="car" depart="812.47" route="NS_A" />
    <vehicle id="extreme_266" type="car" depart="818.94" route="NS_B" />
    <vehicle id="extreme_267" type="car" depart="819.34" route="WE_1" />
    <vehicle id="extreme_268" type="car" depart="820.43" route="NS_A" />
    <vehicle id="extreme_269" type="car" depart="822.58" route="WE_2" />
    <vehicle id="extreme_270" type="car" depart="824.19" route="WE_0" />
    <vehicle id="extreme_271" type="car" depart="824.57" route="WE_1" />
    <vehicle id="extreme_272" type="car" depart="828.41" route="EW_1" />
    <vehicle id="extreme_273" type="car" depart="832.54" route="WE_1" />
    <vehicle id="extreme_274" type="car" depart="833.31" route="WE_0" />
    <vehicle id="extreme_275" type="car" depart="838.05" route="SN_C" />
    <vehicle id="extreme_276" type="car" depart="840.82" route="WE_0" />
    <vehicle id="extreme_277" type="car" depart="841.76" route="NS_B" />
    <vehicle id="extreme_278" type="car" depart="846.73" route="NS_B" />
    <vehicle id="extreme_279" type="car" depart="853.94" route="WE_2" />
    <vehicle id="extreme_280" type="car" depart="856.55" route="WE_1" />
    <vehicle id="extreme_281" type="car" depart="856.82" route="WE_0" />
    <vehicle id="extreme_282" type="car" depart="859.27" route="NS_B" />
    <vehicle id="extreme_283" type="car" depart="861.47" route="WE_1" />
    <vehicle id="extreme_284" type="car" depart="866.99" route="NS_B" />
    <vehicle id="extreme_285" type="car" depart="876.85" route="NS_C" />
    <vehicle id="extreme_286" type="car" depart="877.43" route="NS_C" />
    <vehicle id="extreme_287" type="car" depart="877.91" route="NS_B" />
    <vehicle id="extreme_288" type="car" depart="878.34" route="WE_2" />
    <vehicle id="extreme_289" type="car" depart="881.43" route="NS_C" />
    <vehicle id="extreme_290" type="car" depart="886.38" route="WE_0" />
    <vehicle id="extreme_291" type="car" depart="887.86" route="NS_A" />
    <vehicle id="extreme_292" type="car" depart="890.06" route="NS_B" />
    <vehicle id="extreme_293" type="car" depart="895.16" route="WE_1" />
    <vehicle id="extreme_294" type="car" depart="897.11" route="WE_0" />
    <vehicle id="extreme_295" type="car" depart="898.31" route="WE_1" />
    <vehicle id="extreme_296" type="car" depart="899.30" route="WE_0" />
    <vehicle id="extreme_297" type="car" depart="900.35" route="NS_C" />
    <vehicle id="extreme_298" type="car" depart="901.32" route="NS_B" />
    <vehicle id="extreme_299" type="car" depart="902.36" route="WE_0" />
    <vehicle id="extreme_300" type="car" depart="905.05" route="WE_2" />
    <vehicle id="extreme_301" type="car" depart="908.18" route="NS_C" />
    <vehicle id="extreme_302" type="car" depart="914.32" route="NS_B" />
    <vehicle id="extreme_303" type="car" depart="917.00" route="EW_2" />
    <vehicle id="extreme_304" type="car" depart="919.18" route="WE_2" />
    <vehicle id="extreme_305" type="car" depart="919.87" route="NS_C" />
    <vehicle id="extreme_306" type="car" depart="925.09" route="WE_2" />
    <vehicle id="extreme_307" type="car" depart="933.09" route="WE_1" />
    <vehicle id="extreme_308" type="car" depart="943.04" route="WE_1" />
    <vehicle id="extreme_309" type="car" depart="945.87" route="NS_A" />
    <vehicle id="extreme_310" type="car" depart="948.20" route="EW_2" />
    <vehicle id="extreme_311" type="car" depart="950.34" route="NS_C" />
    <vehicle id="extreme_312" type="car" depart="953.57" route="WE_2" />
    <vehicle id="extreme_313" type="car" depart="954.20" route="NS_B" />
    <vehicle id="extreme_314" type="car" depart="954.72" route="NS_C" />
    <vehicle id="extreme_315" type="car" depart="954.73" route="WE_2" />
    <vehicle id="extreme_316" type="car" depart="955.68" route="WE_2" />
    <vehicle id="extreme_317" type="car" depart="960.50" route="NS_B" />
    <vehicle id="extreme_318" type="car" depart="960.57" route="NS_C" />
    <vehicle id="extreme_319" type="car" depart="961.12" route="WE_1" />
    <vehicle id="extreme_320" type="car" depart="962.81" route="NS_C" />
    <vehicle id="extreme_321" type="car" depart="963.87" route="NS_C" />
    <vehicle id="extreme_322" type="car" depart="966.22" route="SN_A" />
    <vehicle id="extreme_323" type="car" depart="970.24" route="NS_B" />
    <vehicle id="extreme_324" type="car" depart="972.30" route="NS_A" />
    <vehicle id="extreme_325" type="car" depart="975.30" route="NS_A" />
    <vehicle id="extreme_326" type="car" depart="978.17" route="NS_C" />
    <vehicle id="extreme_327" type="car" depart="979.57" route="SN_C" />
    <vehicle id="extreme_328" type="car" depart="980.45" route="WE_2" />
    <vehicle id="extreme_329" type="car" depart="983.40" route="NS_A" />
    <vehicle id="extreme_330" type="car" depart="984.33" route="WE_2" />
    <vehicle id="extreme_331" type="car" depart="987.52" route="WE_1" />
    <vehicle id="extreme_332" type="car" depart="988.13" route="NS_A" />
    <vehicle id="extreme_333" type="car" depart="988.55" route="WE_2" />
    <vehicle id="extreme_334" type="car" depart="990.06" route="NS_B" />
    <vehicle id="extreme_335" type="car" depart="990.11" route="WE_2" />
    <vehicle id="extreme_336" type="car" depart="994.49" route="WE_2" />
    <vehicle id="extreme_337" type="car" depart="994.57" route="NS_B" />
    <vehicle id="extreme_338" type="car" depart="996.05" route="NS_A" />
    <vehicle id="extreme_339" type="car" depart="1000.70" route="NS_B" />
    <vehicle id="extreme_340" type="car" depart="1002.76" route="NS_B" />
    <vehicle id="extreme_341" type="car" depart="1004.85" route="WE_2" />
    <vehicle id="extreme_342" type="car" depart="1018.22" route="NS_C" />
    <vehicle id="extreme_343" type="car" depart="1018.80" route="WE_1" />
    <vehicle id="extreme_344" type="car" depart="1019.69" route="NS_C" />
    <vehicle id="extreme_345" type="car" depart="1028.62" route="NS_A" />
    <vehicle id="extreme_346" type="car" depart="1030.30" route="WE_2" />
    <vehicle id="extreme_347" type="car" depart="1032.89" route="NS_B" />
    <vehicle id="extreme_348" type="car" depart="1037.58" route="WE_0" />
    <vehicle id="extreme_349" type="car" depart="1039.00" route="NS_B" />
    <vehicle id="extreme_350" type="car" depart="1041.80" route="EW_0" />
    <vehicle id="extreme_351" type="car" depart="1048.53" route="NS_B" />
    <vehicle id="extreme_352" type="car" depart="1056.12" route="WE_2" />
    <vehicle id="extreme_353" type="car" depart="1062.40" route="WE_0" />
    <vehicle id="extreme_354" type="car" depart="1062.83" route="WE_1" />
    <vehicle id="extreme_355" type="car" depart="1064.36" route="SN_C" />
    <vehicle id="extreme_356" type="car" depart="1068.15" route="NS_A" />
    <vehicle id="extreme_357" type="car" depart="1074.40" route="WE_2" />
    <vehicle id="extreme_358" type="car" depart="1074.80" route="NS_A" />
    <vehicle id="extreme_359" type="car" depart="1077.76" route="WE_2" />
    <vehicle id="extreme_360" type="car" depart="1079.99" route="NS_A" />
    <vehicle id="extreme_361" type="car" depart="1081.16" route="NS_B" />
    <vehicle id="extreme_362" type="car" depart="1083.42" route="NS_B" />
    <vehicle id="extreme_363" type="car" depart="1085.11" route="NS_A" />
    <vehicle id="extreme_364" type="car" depart="1087.88" route="NS_C" />
    <vehicle id="extreme_365" type="car" depart="1093.81" route="EW_0" />
    <vehicle id="extreme_366" type="car" depart="1095.71" route="NS_B" />
    <vehicle id="extreme_367" type="car" depart="1098.69" route="WE_0" />
    <vehicle id="extreme_368" type="car" depart="1099.37" route="WE_1" />
    <vehicle id="extreme_369" type="car" depart="1102.34" route="NS_C" />
    <vehicle id="extreme_370" type="car" depart="1107.05" route="NS_A" />
    <vehicle id="extreme_371" type="car" depart="1107.40" route="WE_0" />
    <vehicle id="extreme_372" type="car" depart="1109.73" route="WE_2" />
    <vehicle id="extreme_373" type="car" depart="1112.16" route="WE_0" />
    <vehicle id="extreme_374" type="car" depart="1112.34" route="SN_A" />
    <vehicle id="extreme_375" type="car" depart="1113.42" route="NS_A" />
    <vehicle id="extreme_376" type="car" depart="1122.18" route="SN_A" />
    <vehicle id="extreme_377" type="car" depart="1123.05" route="EW_1" />
    <vehicle id="extreme_378" type="car" depart="1129.24" route="WE_0" />
    <vehicle id="extreme_379" type="car" depart="1130.10" route="SN_B" />
    <vehicle id="extreme_380" type="car" depart="1132.26" route="WE_0" />
    <vehicle id="extreme_381" type="car" depart="1132.84" route="NS_C" />
    <vehicle id="extreme_382" type="car" depart="1135.63" route="NS_B" />
    <vehicle id="extreme_383" type="car" depart="1138.24" route="NS_C" />
    <vehicle id="extreme_384" type="car" depart="1139.98" route="WE_1" />
    <vehicle id="extreme_385" type="car" depart="1150.95" route="WE_0" />
    <vehicle id="extreme_386" type="car" depart="1158.40" route="WE_1" />
    <vehicle id="extreme_387" type="car" depart="1160.36" route="NS_A" />
    <vehicle id="extreme_388" type="car" depart="1163.79" route="NS_C" />
    <vehicle id="extreme_389" type="car" depart="1165.58" route="WE_1" />
    <vehicle id="extreme_390" type="car" depart="1166.96" route="WE_0" />
    <vehicle id="extreme_391" type="car" depart="1169.17" route="WE_1" />
    <vehicle id="extreme_392" type="car" depart="1170.67" route="WE_0" />
    <vehicle id="extreme_393" type="car" depart="1176.64" route="NS_C" />
    <vehicle id="extreme_394" type="car" depart="1181.24" route="WE_1" />
    <vehicle id="extreme_395" type="car" depart="1181.74" route="WE_0" />
    <vehicle id="extreme_396" type="car" depart="1182.81" route="NS_A" />
    <vehicle id="extreme_397" type="car" depart="1186.73" route="NS_A" />
    <vehicle id="extreme_398" type="car" depart="1187.29" route="WE_0" />