<?xml version='1.0' encoding='UTF-8'?>
<routes xmlns:xsi="http://www.w3.org/2001/XMLSchema-instance">
    <vType id="car" accel="2.6" decel="4.5" sigma="0.5" length="5" maxSpeed="16.67" />
    <route id="NS_A" edges="top0A2 A2A1 A1A0 A0bottom0" />
    <route id="NS_B" edges="top1B2 B2B1 B1B0 B0bottom1" />
    <route id="NS_C" edges="top2C2 C2C1 C1C0 C0bottom2" />
    <route id="WE_0" edges="left0A0 A0B0 B0C0 C0right0" />
    <route id="WE_1" edges="left1A1 A1B1 B1C1 C1right1" />
    <route id="WE_2" edges="left2A2 A2B2 B2C2 C2right2" />
    <route id="SN_A" edges="bottom0A0 A0A1 A1A2 A2top0" />
    <route id="SN_B" edges="bottom1B0 B0B1 B1B2 B2top1" />
    <route id="SN_C" edges="bottom2C0 C0C1 C1C2 C2top2" />
    <route id="EW_0" edges="right0C0 C0B0 B0A0 A0left0" />
    <route id="EW_1" edges="right1C1 C1B1 B1A1 A1left1" />
    <route id="EW_2" edges="right2C2 C2B2 B2A2 A2left2" />
    <vehicle id="rush_0" type="car" depart="2.92" route="SN_C" />
    <vehicle id="rush_1" type="car" depart="4.12" route="SN_C" />
    <vehicle id="rush_2" type="car" depart="12.18" route="WE_2" />
    <vehicle id="rush_3" type="car" depart="19.27" route="NS_A" />
    <vehicle id="rush_4" type="car" depart="20.42" route="NS_A" />
    <vehicle id="rush_5" type="car" depart="25.01" route="NS_C" />
    <vehicle id="rush_6" type="car" depart="25.53" route="NS_B" />
    <vehicle id="rush_7" type="car" depart="37.31" route="WE_0" />
    <vehicle id="rush_8" type="car" depart="37.41" route="WE_1" />
    <vehicle id="rush_9" type="car" depart="37.81" route="NS_C" />
    <vehicle id="rush_10" type="car" depart="39.92" route="WE_2" />
    <vehicle id="rush_11" type="car" depart="42.45" route="EW_0" />
    <vehicle id="rush_12" type="car" depart="43.96" route="WE_1" />
    <vehicle id="rush_13" type="car" depart="46.79" route="NS_A" />
    <vehicle id="rush_14" type="car" depart="47.61" route="NS_B" />
    <vehicle id="rush_15" type="car" depart="55.35" route="WE_1" />
    <vehicle id="rush_16" type="car" depart="55.66" route="EW_1" />
    <vehicle id="rush_17" type="car" depart="56.33" route="NS_B" />
    <vehicle id="rush_18" type="car" depart="65.82" route="EW_2" />
    <vehicle id="rush_19" type="car" depart="66.72" route="WE_1" />
    <vehicle id="rush_20" type="car" depart="67.66" route="WE_1" />
    <vehicle id="rush_21" type="car" depart="68.04" route="SN_B" />
    <vehicle id="rush_22" type="car" depart="69.62" route="WE_0" />
    <vehicle id="rush_23" type="car" depart="73.09" route="WE_0" />
    <vehicle id="rush_24" type="car" depart="75.94" route="NS_B" />
    <vehicle id="rush_25" type="car" depart="82.34" route="NS_B" />
    <vehicle id="rush_26" type="car" depart="82.66" route="NS_B" />
    <vehicle id="rush_27" type="car" depart="85.33" route="WE_1" />
    <vehicle id="rush_28" type="car" depart="100.21" route="WE_0" />
    <vehicle id="rush_29" type="car" depart="101.87" route="WE_1" />
    <vehicle id="rush_30" type="car" depart="106.99" route="SN_B" />
    <vehicle id="rush_31" type="car" depart="110.40" route="WE_0" />
    <vehicle id="rush_32" type="car" depart="112.65" route="SN_B" />
    <vehicle id="rush_33" type="car" depart="116.94" route="WE_1" />
    <vehicle id="rush_34" type="car" depart="118.33" route="NS_C" />
    <vehicle id="rush_35" type="car" depart="123.43" route="SN_B" />
    <vehicle id="rush_36" type="car" depart="134.94" route="EW_0" />
    <vehicle id="rush_37" type="car" depart="136.35" route="WE_1" />
    <vehicle id="rush_38" type="car" depart="139.56" route="EW_0" />
    <vehicle id="rush_39" type="car" depart="140.23" route="WE_0" />
    <vehicle id="rush_40" type="car" depart="146.74" route="SN_A" />
    <vehicle id="rush_41" type="car" depart="150.17" route="NS_C" />
    <vehicle id="rush_42" type="car" depart="153.77" route="WE_1" />
    <vehicle id="rush_43" type="car" depart="163.69" route="EW_2" />
    <vehicle id="rush_44" type="car" depart="166.87" route="WE_0" />
    <vehicle id="rush_45" type="car" depart="170.38" route="WE_0" />
    <vehicle id="rush_46" type="car" depart="175.86" route="SN_A" />
    <vehicle id="rush_47" type="car" depart="176.85" route="WE_2" />
    <vehicle id="rush_48" type="car" depart="178.46" route="NS_C" />
    <vehicle id="rush_49" type="car" depart="180.08" route="NS_C" />
    <vehicle id="rush_50" type="car" depart="180.18" route="NS_C" />
    <vehicle id="rush_51" type="car" depart="184.88" route="NS_C" />
    <vehicle id="rush_52" type="car" depart="185.62" route="EW_2" />
    <vehicle id="rush_53" type="car" depart="189.03" route="SN_A" />
    <vehicle id="rush_54" type="car" depart="189.09" route="EW_1" />
    <vehicle id="rush_55" type="car" depart="189.24" route="EW_1" />
    <vehicle id="rush_56" type="car" depart="191.06" route="EW_0" />
    <vehicle id="rush_57" type="car" depart="191.86" route="SN_A" />
    <vehicle id="rush_58" type="car" depart="192.03" route="NS_C" />
    <vehicle id="rush_59" type="car" depart="194.16" route="NS_A" />
    <vehicle id="rush_60" type="car" depart="195.13" route="SN_C" />
    <vehicle id="rush_61" type="car" depart="202.95" route="WE_0" />
    <vehicle id="rush_62" type="car" depart="204.29" route="WE_1" />
    <vehicle id="rush_63" type="car" depart="206.64" route="WE_1" />
    <vehicle id="rush_64" type="car" depart="208.98" route="WE_2" />
    <vehicle id="rush_65" type="car" depart="210.18" route="SN_A" />
    <vehicle id="rush_66" type="car" depart="213.30" route="WE_2" />
    <vehicle id="rush_67" type="car" depart="214.54" route="NS_B" />
    <vehicle id="rush_68" type="car" depart="220.73" route="WE_1" />
    <vehicle id="rush_69" type="car" depart="227.31" route="NS_A" />
    <vehicle id="rush_70" type="car" depart="228.49" route="EW_2" />
    <vehicle id="rush_71" type="car" depart="231.12" route="NS_B" />
    <vehicle id="rush_72" type="car" depart="235.56" route="WE_2" />
    <vehicle id="rush_73" type="car" depart="236.89" route="WE_0" />
    <vehicle id="rush_74" type="car" depart="241.75" route="SN_B" />
    <vehicle id="rush_75" type="car" depart="243.53" route="NS_B" />
    <vehicle id="rush_76" type="car" depart="250.55" route="SN_B" />
    <vehicle id="rush_77" type="car" depart="258.47" route="NS_B" />
    <vehicle id="rush_78" type="car" depart="266.54" route="NS_C" />
    <vehicle id="rush_79" type="car" depart="271.78" route="NS_B" />
    <vehicle id="rush_80" type="car" depart="287.00" route="SN_C" />
    <vehicle id="rush_81" type="car" depart="289.67" route="SN_A" />
    <vehicle id="rush_82" type="car" depart="301.72" route="NS_B" />
    <vehicle id="rush_83" type="car" depart="304.58" route="NS_A" />
    <vehicle id="rush_84" type="car" depart="304.96" route="WE_0" />
    <vehicle id="rush_85" type="car" depart="306.37" route="EW_1" />
    <vehicle id="rush_86" type="car" depart="312.23" route="NS_C" />
    <vehicle id="rush_87" type="car" depart="314.26" route="EW_2" />
    <vehicle id="rush_88" type="car" depart="315.41" route="NS_B" />
    <vehicle id="rush_89" type="car" depart="318.94" route="NS_B" />
    <vehicle id="rush_90" type="car" depart="319.22" route="NS_B" />
    <vehicle id="rush_91" type="car" depart="326.09" route="WE_2" />
    <vehicle id="rush_92" type="car" depart="326.18" route="NS_B" />
    <vehicle id="rush_93" type="car" depart="327.01" route="WE_2" />
    <vehicle id="rush_94" type="car" depart="327.32" route="WE_0" />
    <vehicle id="rush_95" type="car" depart="329.94" route="WE_0" />
    <vehicle id="rush_96" type="car" depart="331.13" route="SN_A" />
    <vehicle id="rush_97" type="car" depart="335.25" route="NS_A" />
    <vehicle id="rush_98" type="car" depart="339.24" route="NS_A" />
    <vehicle id="rush_99" type="car" depart="343.80" route="WE_1" />
    <vehicle id="rush_100" type="car" depart="350.47" route="NS_C" />
    <vehicle id="rush_101" type="car" depart="353.12" route="NS_A" />
    <vehicle id="rush_102" type="car" depart="361.57" route="EW_1" />
    <vehicle id="rush_103" type="car" depart="362.05" route="WE_1" />
    <vehicle id="rush_104" type="car" depart="363.89" route="NS_B" />
    <vehicle id="rush_105" type="car" depart="364.24" route="NS_A" />
    <vehicle id="rush_106" type="car" depart="369.91" route="NS_B" />
    <vehicle id="rush_107" type="car" depart="377.27" route="EW_0" />
    <vehicle id="rush_108" type="car" depart="377.94" route="WE_0" />
    <vehicle id="rush_109" type="car" depart="378.78" route="WE_2" />
    <vehicle id="rush_110" type="car" depart="383.45" route="NS_C" />
    <vehicle id="rush_111" type="car" depart="385.99" route="WE_2" />
    <vehicle id="rush_112" type="car" depart="386.61" route="WE_1" />
    <vehicle id="rush_113" type="car" depart="398.97" route="WE_0" />
    <vehicle id="rush_114" type="car" depart="404.03" route="WE_0" />
    <vehicle id="rush_115" type="car" depart="404.44" route="EW_2" />
    <vehicle id="rush_116" type="car" depart="406.40" route="WE_0" />
    <vehicle id="rush_117" type="car" depart="409.61" route="NS_A" />
    <vehicle id="rush_118" type="car" depart="411.59" route="NS_A" />
    <vehicle id="rush_119" type="car" depart="415.70" route="WE_1" />
    <vehicle id="rush_120" type="car" depart="417.06" route="WE_1" />
    <vehicle id="rush_121" type="car" depart="422.17" route="NS_A" />
    <vehicle id="rush_122" type="car" depart="422.87" route="NS_C" />
    <vehicle id="rush_123" type="car" depart="431.37" route="NS_C" />
    <vehicle id="rush_124" type="car" depart="437.94" route="WE_2" />
    <vehicle id="rush_125" type="car" depart="438.89" route="WE_2" />
    <vehicle id="rush_126" type="car" depart="444.66" route="NS_C" />
    <vehicle id="rush_127" type="car" depart="445.49" route="EW_0" />
    <vehicle id="rush_128" type="car" depart="447.30" route="WE_2" />
    <vehicle id="rush_129" type="car" depart="448.43" route="NS_B" />
    <vehicle id="rush_130" type="car" depart="450.46" route="NS_A" />
    <vehicle id="rush_131" type="car" depart="454.32" route="SN_A" />
    <vehicle id="rush_132" type="car" depart="455.16" route="WE_0" />
    <vehicle id="rush_133" type="car" depart="455.52" route="NS_C" />
    <vehicle id="rush_134" type="car" depart="457.40" route="WE_2" />
    <vehicle id="rush_135" type="car" depart="459.07" route="EW_0" />
    <vehicle id="rush_136" type="car" depart="462.45" route="EW_1" />
    <vehicle id="rush_137" type="car" depart="467.56" route="NS_C" />
    <vehicle id="rush_138" type="car" depart="472.91" route="WE_2" />
    <vehicle id="rush_139" type="car" depart="474.57" route="WE_1" />
    <vehicle id="rush_140" type="car" depart="483.36" route="EW_0" />
    <vehicle id="rush_141" type="car" depart="484.08" route="NS_A" />
    <vehicle id="rush_142" type="car" depart="487.29" route="NS_A" />
    <vehicle id="rush_143" type="car" depart="491.66" route="NS_A" />
    <vehicle id="rush_144" type="car" depart="492.63" route="EW_1" />
    <vehicle id="rush_145" type="car" depart="493.99" route="WE_2" />
    <vehicle id="rush_146" type="car" depart="496.94" route="SN_B" />
    <vehicle id="rush_147" type="car" depart="498.33" route="WE_1" />
    <vehicle id="rush_148" type="car" depart="503.81" route="NS_C" />
    <vehicle id="rush_149" type="car" depart="510.17" route="WE_0" />
    <vehicle id="rush_150" type="car" depart="511.15" route="NS_B" />
    <vehicle id="rush_151" type="car" depart="514.15" route="NS_A" />
    <vehicle id="rush_152" type="car" depart="518.94" route="EW_0" />
    <vehicle id="rush_153" type="car" depart="522.31" route="WE_1" />
    <vehicle id="rush_154" type="car" depart="524.36" route="WE_2" />
    <vehicle id="rush_155" type="car" depart="525.41" route="WE_0" />
    <vehicle id="rush_156" type="car" depart="527.48" route="NS_B" />
    <vehicle id="rush_157" type="car" depart="529.13" route="SN_A" />
    <vehicle id="rush_158" type="car" depart="529.43" route="NS_A" />
    <vehicle id="rush_159" type="car" depart="531.01" route="EW_0" />
    <vehicle id="rush_160" type="car" depart="532.55" route="WE_2" />
    <vehicle id="rush_161" type="car" depart="533.39" route="NS_C" />
    <vehicle id="rush_162" type="car" depart="535.31" route="SN_C" />
    <vehicle id="rush_163" type="car" depart="540.30" route="NS_A" />
    <vehicle id="rush_164" type="car" depart="540.47" route="SN_C" />
    <vehicle id="rush_165" type="car" depart="541.76" route="NS_B" />
    <vehicle id="rush_166" type="car" depart="547.17" route="EW_2" />
    <vehicle id="rush_167" type="car" depart="552.46" route="WE_2" />
    <vehicle id="rush_168" type="car" depart="553.83" route="NS_B" />
    <vehicle id="rush_169" type="car" depart="553.95" route="NS_B" />
    <vehicle id="rush_170" type="car" depart="555.59" route="SN_A" />
    <vehicle id="rush_171" type="car" depart="557.88" route="SN_A" />
    <vehicle id="rush_172" type="car" depart="562.34" route="NS_B" />
    <vehicle id="rush_173" type="car" depart="568.27" route="NS_A" />
    <vehicle id="rush_174" type="car" depart="568.57" route="NS_C" />
    <vehicle id="rush_175" type="car" depart="570.43" route="WE_1" />
    <vehicle id="rush_176" type="car" depart="574.50" route="WE_1" />
    <vehicle id="rush_177" type="car" depart="576.50" route="NS_C" />
    <vehicle id="rush_178" type="car" depart="576.80" route="NS_A" />
    <vehicle id="rush_179" type="car" depart="579.18" route="NS_A" />
    <vehicle id="rush_180" type="car" depart="581.69" route="EW_2" />
    <vehicle id="rush_181" type="car" depart="589.47" route="SN_A" />
    <vehicle id="rush_182" type="car" depart="589.72" route="SN_A" />
    <vehicle id="rush_183" type="car" depart="590.67" route="NS_A" />
    <vehicle id="rush_184" type="car" depart="609.84" route="NS_B" />
    <vehicle id="rush_185" type="car" depart="610.53" route="WE_0" />
    <vehicle id="rush_186" type="car" depart="611.69" route="NS_A" />
    <vehicle id="rush_187" type="car" depart="611.87" route="WE_2" />
    <vehicle id="rush_188" type="car" depart="616.41" route="SN_B" />
    <vehicle id="rush_189" type="car" depart="616.42" route="NS_A" />
    <vehicle id="rush_190" type="car" depart="616.70" route="WE_2" />
    <vehicle id="rush_191" type="car" depart="617.00" route="NS_A" />
    <vehicle id="rush_192" type="car" depart="620.75" route="WE_0" />
    <vehicle id="rush_193" type="car" depart="623.97" route="WE_0" />
    <vehicle id="rush_194" type="car" depart="624.51" route="NS_C" />
    <vehicle id="rush_195" type="car" depart="625.96" route="EW_1" />
    <vehicle id="rush_196" type="car" depart="632.09" route="NS_B" />
    <vehicle id="rush_197" type="car" depart="634.54" route="EW_1" />
    <vehicle id="rush_198" type="car" depart="644.12" route="NS_C" />
    <vehicle id="rush_199" type="car" depart="648.96" route="WE_1" />
    <vehicle id="rush_200" type="car" depart="654.55" route="NS_C" />
    <vehicle id="rush_201" type="car" depart="654.78" route="SN_C" />
    <vehicle id="rush_202" type="car" depart="656.95" route="WE_1" />
    <vehicle id="rush_203" type="car" depart="657.55" route="WE_1" />
    <vehicle id="rush_204" type="car" depart="664.55" route="EW_0" />
    <vehicle id="rush_205" type="car" depart="665.74" route="SN_C" />
    <vehicle id="rush_206" type="car" depart="667.77" route="SN_A" />
    <vehicle id="rush_207" type="car" depart="669.98" route="NS_B" />
    <vehicle id="rush_208" type="car" depart="670.06" route="NS_C" />
    <vehicle id="rush_209" type="car" depart="671.11" route="NS_C" />
    <vehicle id="rush_210" type="car" depart="671.26" route="EW_1" />
    <vehicle id="rush_211" type="car" depart="673.20" route="NS_C" />
    <vehicle id="rush_212" type="car" depart="680.44" route="WE_2" />
    <vehicle id="rush_213" type="car" depart="684.62" route="SN_A" />
    <vehicle id="rush_214" type="car" depart="686.61" route="NS_A" />
    <vehicle id="rush_215" type="car" depart="693.46" route="WE_0" />
    <vehicle id="rush_216" type="car" depart="695.26" route="EW_0" />
    <vehicle id="rush_217" type="car" depart="696.36" route="SN_A" />
    <vehicle id="rush_218" type="car" depart="697.04" route="NS_A" />
    <vehicle id="rush_219" type="car" depart="697.90" route="EW_2" />
    <vehicle id="rush_220" type="car" depart="699.78" route="WE_1" />
    <vehicle id="rush_221" type="car" depart="708.61" route="WE_2" />
    <vehicle id="rush_222" type="car" depart="708.79" route="NS_A" />
    <vehicle id="rush_223" type="car" depart="709.98" route="WE_2" />
    <vehicle id="rush_224" type="car" depart="712.96" route="SN_A" />
    <vehicle id="rush_225" type="car" depart="714.08" route="WE_0" />
    <vehicle id="rush_226" type="car" depart="715.35" route="WE_0" />
    <vehicle id="rush_227" type="car" depart="723.79" route="NS_B" />
    <vehicle id="rush_228" type="car" depart="723.92" route="EW_1" />
    <vehicle id="rush_229" type="car" depart="726.46" route="SN_C" />
    <vehicle id="rush_230" type="car" depart="727.21" route="NS_B" />
    <vehicle id="rush_231" type="car" depart="728.21" route="NS_A" />
    <vehicle id="rush_232" type="car" depart="732.61" route="EW_0" />
    <vehicle id="rush_233" type="car" depart="733.69" route="SN_C" />
    <vehicle id="rush_234" type="car" depart="738.65" route="NS_A" />
    <vehicle id="rush_235" type="car" depart="740.11" route="NS_B" />
    <vehicle id="rush_236" type="car" depart="745.21" route="NS_A" />
    <vehicle id="rush_237" type="car" depart="752.76" route="WE_0" />
    <vehicle id="rush_238" type="car" depart="759.88" route="WE_1" />
    <vehicle id="rush_239" type="car" depart="767.17" route="NS_A" />
    <vehicle id="rush_240" type="car" depart="767.43" route="NS_C" />
    <vehicle id="rush_241" type="car" depart="770.20" route="NS_C" />
    <vehicle id="rush_242" type="car" depart="770.52" route="WE_0" />
    <vehicle id="rush_243" type="car" depart="770.66" route="NS_B" />
    <vehicle id="rush_244" type="car" depart="772.56" route="NS_C" />
    <vehicle id="rush_245" type="car" depart="778.29" route="NS_B" />
    <vehicle id="rush_246" type="car" depart="778.31" route="WE_0" />
    <vehicle id="rush_247" type="car" depart="779.17" route="WE_1" />
    <vehicle id="rush_248" type="car" depart="780.09" route="SN_A" />
    <vehicle id="rush_249" type="car" depart="780.50" route="NS_B" />
    <vehicle id="rush_250" type="car" depart="785.19" route="EW_2" />
    <vehicle id="rush_251" type="car" depart="789.47" route="SN_A" />
    <vehicle id="rush_252" type="car" depart="791.25" route="NS_A" />
    <vehicle id="rush_253" type="car" depart="798.18" route="SN_A" />
    <vehicle id="rush_254" type="car" depart="800.55" route="NS_A" />
    <vehicle id="rush_255" type="car" depart="803.18" route="SN_A" />
    <vehicle id="rush_256" type="car" depart="811.06" route="NS_B" />
    <vehicle id="rush_257" type="car" depart="812.48" route="WE_2" />
    <vehicle id="rush_258" type="car" depart="816.83" route="EW_0" />
    <vehicle id="rush_259" type="car" depart="819.49" route="WE_1" />
    <vehicle id="rush_260" type="car" depart="819.99" route="EW_0" />
    <vehicle id="rush_261" type="car" depart="820.99" route="NS_A" />
    <vehicle id="rush_262" type="car" depart="824.64" route="NS_C" />
    <vehicle id="rush_263" type="car" depart="828.61" route="WE_0" />
    <vehicle id="rush_264" type="car" depart="829.22" route="NS_B" />
    <vehicle id="rush_265" type="car" depart="829.25" route="NS_B" />
    <vehicle id="rush_266" type="car" depart="830.46" route="NS_C" />
    <vehicle id="rush_267" type="car" depart="831.09" route="WE_2" />
    <vehicle id="rush_268" type="car" depart="835.70" route="WE_0" />
    <vehicle id="rush_269" type="car" depart="836.93" route="WE_1" />
    <vehicle id="rush_270" type="car" depart="844.68" route="NS_A" />
    <vehicle id="rush_271" type="car" depart="845.39" route="EW_1" />
    <vehicle id="rush_272" type="car" depart="845.76" route="NS_A" />
    <vehicle id="rush_273" type="car" depart="851.22" route="NS_C" />
    <vehicle id="rush_274" type="car" depart="852.85" route="WE_2" />
    <vehicle id="rush_275" type="car" depart="855.44" route="NS_B" />
    <vehicle id="rush_276" type="car" depart="860.79" route="EW_1" />
    <vehicle id="rush_277" type="car" depart="863.18" route="NS_B" />
    <vehicle id="rush_278" type="car" depart="868.72" route="WE_1" />
    <vehicle id="rush_279" type="car" depart="871.23" route="NS_C" />
    <vehicle id="rush_280" type="car" depart="871.60" route="NS_C" />
    <vehicle id="rush_281" type="car" depart="873.81" route="SN_B" />
    <vehicle id="rush_282" type="car" depart="874.27" route="SN_B" />
    <vehicle id="rush_283" type="car" depart="877.49" route="WE_1" />
    <vehicle id="rush_284" type="car" depart="879.55" route="NS_C" />
    <vehicle id="rush_285" type="car" depart="880.07" route="WE_1" />
    <vehicle id="rush_286" type="car" depart="882.99" route="NS_A" />
    <vehicle id="rush_287" type="car" depart="893.96" route="NS_A" />
    <vehicle id="rush_288" type="car" depart="895.35" route="NS_B" />
    <vehicle id="rush_289" type="car" depart="896.22" route="NS_B" />
    <vehicle id="rush_290" type="car" depart="901.23" route="WE_2" />
    <vehicle id="rush_291" type="car" depart="906.65" route="EW_0" />
    <vehicle id="rush_292" type="car" depart="908.79" route="NS_C" />
    <vehicle id="rush_293" type="car" depart="909.21" route="NS_C" />
    <vehicle id="rush_294" type="car" depart="916.47" route="SN_C" />
    <vehicle id="rush_295" type="car" depart="917.61" route="NS_A" />
    <vehicle id="rush_296" type="car" depart="918.92" route="WE_1" />
    <vehicle id="rush_297" type="car" depart="924.42" route="WE_0" />
    <vehicle id="rush_298" type="car" depart="935.94" route="NS_C" />
    <vehicle id="rush_299" type="car" depart="941.52" route="NS_C" />
    <vehicle id="rush_300" type="car" depart="943.55" route="WE_2" />
    <vehicle id="rush_301" type="car" depart="951.55" route="NS_C" />
    <vehicle id="rush_302" type="car" depart="952.65" route="WE_2" />
    <vehicle id="rush_303" type="car" depart="954.05" route="WE_2" />
    <vehicle id="rush_304" type="car" depart="961.70" route="EW_1" />
    <vehicle id="rush_305" type="car" depart="965.47" route="WE_0" />
    <vehicle id="rush_306" type="car" depart="966.90" route="WE_0" />
    <vehicle id="rush_307" type="car" depart="976.78" route="NS_C" />
    <vehicle id="rush_308" type="car" depart="977.04" route="NS_C" />
    <vehicle id="rush_309" type="car" depart="980.10" route="WE_1" />
    <vehicle id="rush_310" type="car" depart="986.66" route="EW_0" />
    <vehicle id="rush_311" type="car" depart="988.09" route="SN_B" />
    <vehicle id="rush_312" type="car" depart="988.37" route="SN_B" />
    <vehicle id="rush_313" type="car" depart="990.47" route="NS_A" />
    <vehicle id="rush_314" type="car" depart="990.72" route="WE_0" />
    <vehicle id="rush_315" type="car" depart="994.19" route="SN_C" />
    <vehicle id="rush_316" type="car" depart="996.29" route="EW_0" />
    <vehicle id="rush_317" type="car" depart="996.47" route="WE_2" />
    <vehicle id="rush_318" type="car" depart="999.31" route="WE_0" />
    <vehicle id="rush_319" type="car" depart="999.65" route="NS_B" />
    <vehicle id="rush_320" type="car" depart="999.91" route="NS_A" />
    <vehicle id="rush_321" type="car" depart="1006.39" route="SN_B" />
    <vehicle id="rush_322" type="car" depart="1007.64" route="SN_B" />
    <vehicle id="rush_323" type="car" depart="1012.41" route="WE_0" />
    <vehicle id="rush_324" type="car" depart="1013.45" route="SN_C" />
    <vehicle id="rush_325" type="car" depart="1018.28" route="WE_2" />
    <vehicle id="rush_326" type="car" depart="1020.06" route="SN_A" />
    <vehicle id="rush_327" type="car" depart="1021.50" route="WE_0" />
    <vehicle id="rush_328" type="car" depart="1028.01" route="WE_2" />
    <vehicle id="rush_329" type="car" depart="1030.45" route="WE_0" />
    <vehicle id="rush_330" type="car" depart="1031.48" route="NS_A" />
    <vehicle id="rush_331" type="car" depart="1033.75" route="EW_2" />
    <vehicle id="rush_332" type="car" depart="1041.75" route="WE_2" />
    <vehicle id="rush_333" type="car" depart="1048.10" route="NS_C" />
    <vehicle id="rush_334" type="car" depart="1050.64" route="NS_C" />
    <vehicle id="rush_335" type="car" depart="1054.40" route="NS_C" />
    <vehicle id="rush_336" type="car" depart="1060.91" route="NS_B" />
    <vehicle id="rush_337" type="car" depart="1062.39" route="NS_C" />
    <vehicle id="rush_338" type="car" depart="1063.99" route="NS_B" />
    <vehicle id="rush_339" type="car" depart="1066.28" route="EW_0" />
    <vehicle id="rush_340" type="car" depart="1069.89" route="WE_0" />
    <vehicle id="rush_341" type="car" depart="1072.06" route="SN_C" />
    <vehicle id="rush_342" type="car" depart="1074.22" route="WE_1" />
    <vehicle id="rush_343" type="car" depart="1074.37" route="WE_1" />
    <vehicle id="rush_344" type="car" depart="1078.94" route="NS_C" />
    <vehicle id="rush_345" type="car" depart="1086.20" route="NS_B" />
    <vehicle id="rush_346" type="car" depart="1086.89" route="SN_C" />
    <vehicle id="rush_347" type="car" depart="1090.31" route="NS_B" />
    <vehicle id="rush_348" type="car" depart="1097.15" route="WE_1" />
    <vehicle id="rush_349" type="car" depart="1097.36" route="EW_1" />
    <vehicle id="rush_350" type="car" depart="1099.00" route="WE_1" />
    <vehicle id="rush_351" type="car" depart="1100.44" route="WE_1" />
    <vehicle id="rush_352" type="car" depart="1101.71" route="NS_B" />
    <vehicle id="rush_353" type="car" depart="1102.94" route="SN_C" />
    <vehicle id="rush_354" type="car" depart="1110.20" route="WE_2" />
    <vehicle id="rush_355" type="car" depart="1110.39" route="NS_B" />
    <vehicle id="rush_356" type="car" depart="1111.40" route="NS_A" />
    <vehicle id="rush_357" type="car" depart="1112.56" route="NS_B" />
    <vehicle id="rush_358" type="car" depart="1112.78" route="NS_A" />
    <vehicle id="rush_359" type="car" depart="1114.54" route="NS_A" />
    <vehicle id="rush_360" type="car" depart="1119.45" route="EW_0" />
    <vehicle id="rush_361" type="car" depart="1130.81" route="SN_C" />
    <vehicle id="rush_362" type="car" depart="1133.35" route="EW_0" />
    <vehicle id="rush_363" type="car" depart="1133.52" route="NS_C" />
    <vehicle id="rush_364" type="car" depart="1135.78" route="EW_2" />
    <vehicle id="rush_365" type="car" depart="1137.42" route="NS_C" />
    <vehicle id="rush_366" type="car" depart="1140.32" route="NS_B" />
    <vehicle id="rush_367" type="car" depart="1142.97" route="NS_A" />
    <vehicle id="rush_368" type="car" depart="1149.84" route="NS_A" />
    <vehicle id="rush_369" type="car" depart="1152.98" route="WE_2" />
    <vehicle id="rush_370" type="car" depart="1168.18" route="SN_C" />
    <vehicle id="rush_371" type="car" depart="1169.64" route="WE_2" />
    <vehicle id="rush_372" type="car" depart="1169.96" route="NS_A" />
    <vehicle id="rush_373" type="car" depart="1170.01" route="NS_B" />
    <vehicle id="rush_374" type="car" depart="1176.50" route="WE_1" />
    <vehicle id="rush_375" type="car" depart="1183.35" route="NS_B" />
    <vehicle id="rush_376" type="car" depart="1185.53" route="NS_A" />
    <vehicle id="rush_377" type="car" depart="1188.32" route="NS_C" />
    <vehicle id="rush_378" type="car" depart="1191.88" route="WE_1" />
    <vehicle id="rush_379" type="car" depart="1194.64" route="NS_A" />
    <vehicle id="rush_380" type="car" depart="1197.44" route="NS_C" />
    <vehicle id="rush_381" type="car" depart="1208.08" route="NS_A" />
    <vehicle id="rush_382" type="car" depart="1210.56" route="WE_0" />
    <vehicle id="rush_383" type="car" depart="1211.28" route="NS_B" />
    <vehicle id="rush_384" type="car" depart="1214.18" route="WE_2" />
    <vehicle id="rush_385" type="car" depart="1218.71" route="NS_C" />
    <vehicle id="rush_386" type="car" depart="1221.00" route="WE_0" />
    <vehicle id="rush_387" type="car" depart="1221.78" route="WE_1" />
    <vehicle id="rush_388" type="car" depart="1223.88" route="WE_1" />
    <vehicle id="rush_389" type="car" depart="1227.69" route="NS_B" />
    <vehicle id="rush_390" type="car" depart="1232.20" route="WE_0" />
    <vehicle id="rush_391" type="car" depart="1233.96" route="SN_C" />
    <vehicle id="rush_392" type="car" depart="1242.42" route="NS_C" />
    <vehicle id="rush_393" type="car" depart="1246.91" route="WE_0" />
    <vehicle id="rush_394" type="car" depart="1251.46" route="WE_2" />
    <vehicle id="rush_395" type="car" depart="1254.57" route="WE_2" />
    <vehicle id="rush_396" type="car" depart="1256.06" route="NS_A" />
    <vehicle id="rush_397" type="car" depart="1256.38" route="SN_C" />
    <vehicle id="rush_398" type="car" depart="1260.47" route="WE_2" />
    <vehicle id="rush_399" type="car" depart="1260.64" route="WE_1" />
    <vehicle id="rush_400" type="car" depart="1263.56" route="WE_0" />
    <vehicle id="rush_401" type="car" depart="1264.61" route="WE_0" />
    <vehicle id="rush_402" type="car" depart="1265.00" route="WE_2" />
    <vehicle id="rush_403" type="car" depart="1265.68" route="NS_C" />
    <vehicle id="rush_404" type="car" depart="1266.38" route="EW_2" />
    <vehicle id="rush_405" type="car" depart="1275.45" route="WE_2" />
    <vehicle id="rush_406" type="car" depart="1285.01" route="NS_B" />
    <vehicle id="rush_407" type="car" depart="1285.69" route="NS_A" />
    <vehicle id="rush_408" type="car" depart="1286.29" route="EW_0" />
    <vehicle id="rush_409" type="car" depart="1291.98" route="NS_B" />
    <vehicle id="rush_410" type="car" depart="1297.89" route="NS_C" />
    <vehicle id="rush_411" type="car" depart="1299.00" route="WE_2" />
    <vehicle id="rush_412" type="car" depart="1306.72" route="NS_C" />
    <vehicle id="rush_413" type="car" depart="1309.25" route="NS_C" />
    <vehicle id="rush_414" type="car" depart="1310.13" route="EW_0" />
    <vehicle id="rush_415" type="car" depart="1327.42" route="NS_C" />