<?xml version="1.0" encoding="UTF-8"?>
<!-- Highway+service demand | 1500 vehicles over 3600s -->
<routes>
    <vType id="car" accel="1.3" decel="2.25" sigma="0.5" length="5" minGap="2.5" maxSpeed="27.78" lcKeepRight="0"/>
    <route id="hwy_E_thru" edges="hwy_E_s1 hwy_E_s1_accel hwy_E_s2 hwy_E_s2_accel hwy_E_s3"/>
    <route id="hwy_W_thru" edges="hwy_W_s1 hwy_W_s1_accel hwy_W_s2 hwy_W_s2_accel hwy_W_s3"/>
    <route id="svc_E_thru" edges="svc_E_s1 svc_E_s2 svc_E_s3"/>
    <route id="svc_W_thru" edges="svc_W_s1 svc_W_s2 svc_W_s3"/>
    <route id="svc_E_merge_E1" edges="svc_E_s1 merge_E1 hwy_E_s1_accel hwy_E_s2 hwy_E_s2_accel hwy_E_s3"/>
    <route id="svc_E_merge_E2" edges="svc_E_s1 svc_E_s2 merge_E2 hwy_E_s2_accel hwy_E_s3"/>
    <route id="svc_W_merge_W1" edges="svc_W_s1 merge_W1 hwy_W_s1_accel hwy_W_s2 hwy_W_s2_accel hwy_W_s3"/>
    <route id="svc_W_merge_W2" edges="svc_W_s1 svc_W_s2 merge_W2 hwy_W_s2_accel hwy_W_s3"/>

    <vehicle id="v_0" type="car" route="svc_E_merge_E2" depart="1.2" departLane="best" departSpeed="max"/>
    <vehicle id="v_1" type="car" route="hwy_E_thru" depart="3.6" departLane="0" departSpeed="max"/>
    <vehicle id="v_2" type="car" route="hwy_E_thru" depart="6.0" departLane="1" departSpeed="max"/>
    <vehicle id="v_3" type="car" route="hwy_W_thru" depart="8.4" departLane="2" departSpeed="max"/>
    <vehicle id="v_4" type="car" route="hwy_W_thru" depart="10.8" departLane="3" departSpeed="max"/>
    <vehicle id="v_5" type="car" route="svc_W_thru" depart="13.2" departLane="best" departSpeed="max"/>
    <vehicle id="v_6" type="car" route="svc_W_merge_W1" depart="15.6" departLane="best" departSpeed="max"/>
    <vehicle id="v_7" type="car" route="hwy_E_thru" depart="18.0" departLane="0" departSpeed="max"/>
    <vehicle id="v_8" type="car" route="svc_W_thru" depart="20.4" departLane="best" departSpeed="max"/>
    <vehicle id="v_9" type="car" route="svc_W_thru" depart="22.8" departLane="best" departSpeed="max"/>
    <vehicle id="v_10" type="car" route="hwy_E_thru" depart="25.2" departLane="1" departSpeed="max"/>
    <vehicle id="v_11" type="car" route="svc_W_thru" depart="27.6" departLane="best" departSpeed="max"/>
    <vehicle id="v_12" type="car" route="hwy_W_thru" depart="30.0" departLane="2" departSpeed="max"/>
    <vehicle id="v_13" type="car" route="hwy_W_thru" depart="32.4" departLane="3" departSpeed="max"/>
    <vehicle id="v_14" type="car" route="hwy_W_thru" depart="34.8" departLane="0" departSpeed="max"/>
    <vehicle id="v_15" type="car" route="hwy_E_thru" depart="37.2" departLane="1" departSpeed="max"/>
    <vehicle id="v_16" type="car" route="hwy_W_thru" depart="39.6" departLane="2" departSpeed="max"/>
    <vehicle id="v_17" type="car" route="svc_E_thru" depart="42.0" departLane="best" departSpeed="max"/>
    <vehicle id="v_18" type="car" route="hwy_W_thru" depart="44.4" departLane="3" departSpeed="max"/>
    <vehicle id="v_19" type="car" route="hwy_W_thru" depart="46.8" departLane="0" departSpeed="max"/>
    <vehicle id="v_20" type="car" route="svc_W_merge_W2" depart="49.2" departLane="best" departSpeed="max"/>
    <vehicle id="v_21" type="car" route="hwy_W_thru" depart="51.6" departLane="1" departSpeed="max"/>
    <vehicle id="v_22" type="car" route="hwy_E_thru" depart="54.0" departLane="2" departSpeed="max"/>
    <vehicle id="v_23" type="car" route="svc_E_merge_E2" depart="56.4" departLane="best" departSpeed="max"/>
    <vehicle id="v_24" type="car" route="hwy_W_thru" depart="58.8" departLane="3" departSpeed="max"/>
    <vehicle id="v_25" type="car" route="hwy_W_thru" depart="61.2" departLane="0" departSpeed="max"/>
    <vehicle id="v_26" type="car" route="svc_E_merge_E2" depart="63.6" departLane="best" departSpeed="max"/>
    <vehicle id="v_27" type="car" route="hwy_W_thru" depart="66.0" departLane="1" departSpeed="max"/>
    <vehicle id="v_28" type="car" route="hwy_E_thru" depart="68.4" departLane="2" departSpeed="max"/>
    <vehicle id="v_29" type="car" route="hwy_E_thru" depart="70.8" departLane="3" departSpeed="max"/>
    <vehicle id="v_30" type="car" route="hwy_E_thru" depart="73.2" departLane="0" departSpeed="max"/>
    <vehicle id="v_31" type="car" route="hwy_E_thru" depart="75.6" departLane="1" departSpeed="max"/>
    <vehicle id="v_32" type="car" route="hwy_E_thru" depart="78.0" departLane="2" departSpeed="max"/>
    <vehicle id="v_33" type="car" route="svc_W_merge_W2" depart="80.4" departLane="best" departSpeed="max"/>
    <vehicle id="v_34" type="car" route="hwy_W_thru" depart="82.8" departLane="3" departSpeed="max"/>
    <vehicle id="v_35" type="car" route="svc_E_merge_E1" depart="85.2" departLane="best" departSpeed="max"/>
    <vehicle id="v_36" type="car" route="svc_W_thru" depart="87.6" departLane="best" departSpeed="max"/>
    <vehicle id="v_37" type="car" route="hwy_E_thru" depart="90.0" departLane="0" departSpeed="max"/>
    <vehicle id="v_38" type="car" route="svc_W_thru" depart="92.4" departLane="best" departSpeed="max"/>
    <vehicle id="v_39" type="car" route="hwy_W_thru" depart="94.8" departLane="1" departSpeed="max"/>
    <vehicle id="v_40" type="car" route="hwy_E_thru" depart="97.2" departLane="2" departSpeed="max"/>
    <vehicle id="v_41" type="car" route="hwy_W_thru" depart="99.6" departLane="3" departSpeed="max"/>
    <vehicle id="v_42" type="car" route="svc_W_merge_W1" depart="102.0" departLane="best" departSpeed="max"/>
    <vehicle id="v_43" type="car" route="hwy_E_thru" depart="104.4" departLane="0" departSpeed="max"/>
    <vehicle id="v_44" type="car" route="svc_E_thru" depart="106.8" departLane="best" departSpeed="max"/>
    <vehicle id="v_45" type="car" route="svc_W_thru" depart="109.2" departLane="best" departSpeed="max"/>
    <vehicle id="v_46" type="car" route="hwy_E_thru" depart="111.6" departLane="1" departSpeed="max"/>
    <vehicle id="v_47" type="car" route="hwy_E_thru" depart="114.0" departLane="2" departSpeed="max"/>
    <vehicle id="v_48" type="car" route="hwy_E_thru" depart="116.4" departLane="3" departSpeed="max"/>
    <vehicle id="v_49" type="car" route="svc_E_thru" depart="118.8" departLane="best" departSpeed="max"/>
    <vehicle id="v_50" type="car" route="svc_W_thru" depart="121.2" departLane="best" departSpeed="max"/>
    <vehicle id="v_51" type="car" route="hwy_W_thru" depart="123.6" departLane="0" departSpeed="max"/>
    <vehicle id="v_52" type="car" route="hwy_E_thru" depart="126.0" departLane="1" departSpeed="max"/>
    <vehicle id="v_53" type="car" route="svc_W_merge_W1" depart="128.4" departLane="best" departSpeed="max"/>
    <vehicle id="v_54" type="car" route="hwy_W_thru" depart="130.8" departLane="2" departSpeed="max"/>
    <vehicle id="v_55" type="car" route="svc_E_merge_E1" depart="133.2" departLane="best" departSpeed="max"/>
    <vehicle id="v_56" type="car" route="hwy_E_thru" depart="135.6" departLane="3" departSpeed="max"/>
    <vehicle id="v_57" type="car" route="svc_W_thru" depart="138.0" departLane="best" departSpeed="max"/>
    <vehicle id="v_58" type="car" route="hwy_E_thru" depart="140.4" departLane="0" departSpeed="max"/>
    <vehicle id="v_59" type="car" route="svc_E_thru" depart="142.8" departLane="best" departSpeed="max"/>
    <vehicle id="v_60" type="car" route="hwy_W_thru" depart="145.2" departLane="1" departSpeed="max"/>
    <vehicle id="v_61" type="car" route="svc_E_merge_E2" depart="147.6" departLane="best" departSpeed="max"/>
    <vehicle id="v_62" type="car" route="hwy_W_thru" depart="150.0" departLane="2" departSpeed="max"/>
    <vehicle id="v_63" type="car" route="svc_W_merge_W1" depart="152.4" departLane="best" departSpeed="max"/>
    <vehicle id="v_64" type="car" route="hwy_E_thru" depart="154.8" departLane="3" departSpeed="max"/>
    <vehicle id="v_65" type="car" route="hwy_W_thru" depart="157.2" departLane="0" departSpeed="max"/>
    <vehicle id="v_66" type="car" route="hwy_W_thru" depart="159.6" departLane="1" departSpeed="max"/>
    <vehicle id="v_67" type="car" route="svc_W_thru" depart="162.0" departLane="best" departSpeed="max"/>
    <vehicle id="v_68" type="car" route="hwy_E_thru" depart="164.4" departLane="2" departSpeed="max"/>
    <vehicle id="v_69" type="car" route="hwy_W_thru" depart="166.8" departLane="3" departSpeed="max"/>
    <vehicle id="v_70" type="car" route="svc_E_merge_E2" depart="169.2" departLane="best" departSpeed="max"/>
    <vehicle id="v_71" type="car" route="hwy_W_thru" depart="171.6" departLane="0" departSpeed="max"/>
    <vehicle id="v_72" type="car" route="hwy_W_thru" depart="174.0" departLane="1" departSpeed="max"/>
    <vehicle id="v_73" type="car" route="hwy_E_thru" depart="176.4" departLane="2" departSpeed="max"/>
    <vehicle id="v_74" type="car" route="svc_W_thru" depart="178.8" departLane="best" departSpeed="max"/>
    <vehicle id="v_75" type="car" route="hwy_E_thru" depart="181.2" departLane="3" departSpeed="max"/>
    <vehicle id="v_76" type="car" route="hwy_E_thru" depart="183.6" departLane="0" departSpeed="max"/>
    <vehicle id="v_77" type="car" route="svc_E_thru" depart="186.0" departLane="best" departSpeed="max"/>
    <vehicle id="v_78" type="car" route="svc_W_merge_W1" depart="188.4" departLane="best" departSpeed="max"/>
    <vehicle id="v_79" type="car" route="svc_E_thru" depart="190.8" departLane="best" departSpeed="max"/>
    <vehicle id="v_80" type="car" route="hwy_W_thru" depart="193.2" departLane="1" departSpeed="max"/>
    <vehicle id="v_81" type="car" route="hwy_E_thru" depart="195.6" departLane="2" departSpeed="max"/>
    <vehicle id="v_82" type="car" route="svc_W_merge_W2" depart="198.0" departLane="best" departSpeed="max"/>
    <vehicle id="v_83" type="car" route="svc_W_merge_W2" depart="200.4" departLane="best" departSpeed="max"/>
    <vehicle id="v_84" type="car" route="hwy_W_thru" depart="202.8" departLane="3" departSpeed="max"/>
    <vehicle id="v_85" type="car" route="svc_W_thru" depart="205.2" departLane="best" departSpeed="max"/>
    <vehicle id="v_86" type="car" route="svc_E_merge_E2" depart="207.6" departLane="best" departSpeed="max"/>
    <vehicle id="v_87" type="car" route="hwy_E_thru" depart="210.0" departLane="0" departSpeed="max"/>
    <vehicle id="v_88" type="car" route="svc_E_thru" depart="212.4" departLane="best" departSpeed="max"/>
    <vehicle id="v_89" type="car" route="hwy_W_thru" depart="214.8" departLane="1" departSpeed="max"/>
    <vehicle id="v_90" type="car" route="svc_E_merge_E1" depart="217.2" departLane="best" departSpeed="max"/>
    <vehicle id="v_91" type="car" route="svc_E_merge_E1" depart="219.6" departLane="best" departSpeed="max"/>
    <vehicle id="v_92" type="car" route="hwy_E_thru" depart="222.0" departLane="2" departSpeed="max"/>
    <vehicle id="v_93" type="car" route="hwy_W_thru" depart="224.4" departLane="3" departSpeed="max"/>
    <vehicle id="v_94" type="car" route="svc_E_thru" depart="226.8" departLane="best" departSpeed="max"/>
    <vehicle id="v_95" type="car" route="svc_E_thru" depart="229.2" departLane="best" departSpeed="max"/>
    <vehicle id="v_96" type="car" route="hwy_E_thru" depart="231.6" departLane="0" departSpeed="max"/>
    <vehicle id="v_97" type="car" route="hwy_W_thru" depart="234.0" departLane="1" departSpeed="max"/>
    <vehicle id="v_98" type="car" route="hwy_E_thru" depart="236.4" departLane="2" departSpeed="max"/>
    <vehicle id="v_99" type="car" route="hwy_W_thru" depart="238.8" departLane="3" departSpeed="max"/>
    <vehicle id="v_100" type="car" route="svc_E_merge_E1" depart="241.2" departLane="best" departSpeed="max"/>
    <vehicle id="v_101" type="car" route="hwy_E_thru" depart="243.6" departLane="0" departSpeed="max"/>
    <vehicle id="v_102" type="car" route="hwy_E_thru" depart="246.0" departLane="1" departSpeed="max"/>
    <vehicle id="v_103" type="car" route="svc_E_merge_E2" depart="248.4" departLane="best" departSpeed="max"/>
    <vehicle id="v_104" type="car" route="svc_E_merge_E2" depart="250.8" departLane="best" departSpeed="max"/>
    <vehicle id="v_105" type="car" route="hwy_W_thru" depart="253.2" departLane="2" departSpeed="max"/>
    <vehicle id="v_106" type="car" route="hwy_E_thru" depart="255.6" departLane="3" departSpeed="max"/>
    <vehicle id="v_107" type="car" route="hwy_E_thru" depart="258.0" departLane="0" departSpeed="max"/>
    <vehicle id="v_108" type="car" route="hwy_W_thru" depart="260.4" departLane="1" departSpeed="max"/>
    <vehicle id="v_109" type="car" route="hwy_W_thru" depart="262.8" departLane="2" departSpeed="max"/>
    <vehicle id="v_110" type="car" route="svc_E_thru" depart="265.2" departLane="best" departSpeed="max"/>
    <vehicle id="v_111" type="car" route="svc_W_merge_W2" depart="267.6" departLane="best" departSpeed="max"/>
    <vehicle id="v_112" type="car" route="hwy_W_thru" depart="270.0" departLane="3" departSpeed="max"/>
    <vehicle id="v_113" type="car" route="hwy_E_thru" depart="272.4" departLane="0" departSpeed="max"/>
    <vehicle id="v_114" type="car" route="svc_E_thru" depart="274.8" departLane="best" departSpeed="max"/>
    <vehicle id="v_115" type="car" route="svc_E_thru" depart="277.2" departLane="best" departSpeed="max"/>
    <vehicle id="v_116" type="car" route="hwy_W_thru" depart="279.6" departLane="1" departSpeed="max"/>
    <vehicle id="v_117" type="car" route="svc_W_thru" depart="282.0" departLane="best" departSpeed="max"/>
    <vehicle id="v_118" type="car" route="hwy_W_thru" depart="284.4" departLane="2" departSpeed="max"/>
    <vehicle id="v_119" type="car" route="svc_W_thru" depart="286.8" departLane="best" departSpeed="max"/>
    <vehicle id="v_120" type="car" route="hwy_E_thru" depart="289.2" departLane="3" departSpeed="max"/>
    <vehicle id="v_121" type="car" route="hwy_W_thru" depart="291.6" departLane="0" departSpeed="max"/>
    <vehicle id="v_122" type="car" route="hwy_E_thru" depart="294.0" departLane="1" departSpeed="max"/>
    <vehicle id="v_123" type="car" route="hwy_E_thru" depart="296.4" departLane="2" departSpeed="max"/>
    <vehicle id="v_124" type="car" route="hwy_W_thru" depart="298.8" departLane="3" departSpeed="max"/>
    <vehicle id="v_125" type="car" route="hwy_E_thru" depart="301.2" departLane="0" departSpeed="max"/>
    <vehicle id="v_126" type="car" route="hwy_E_thru" depart="303.6" departLane="1" departSpeed="max"/>
    <vehicle id="v_127" type="car" route="svc_E_merge_E1" depart="306.0" departLane="best" departSpeed="max"/>
    <vehicle id="v_128" type="car" route="svc_E_merge_E1" depart="308.4" departLane="best" departSpeed="max"/>
    <vehicle id="v_129" type="car" route="svc_W_thru" depart="310.8" departLane="best" departSpeed="max"/>
    <vehicle id="v_130" type="car" route="svc_E_merge_E2" depart="313.2" departLane="best" departSpeed="max"/>
    <vehicle id="v_131" type="car" route="hwy_E_thru" depart="315.6" departLane="2" departSpeed="max"/>
    <vehicle id="v_132" type="car" route="svc_W_merge_W2" depart="318.0" departLane="best" departSpeed="max"/>
    <vehicle id="v_133" type="car" route="hwy_E_thru" depart="320.4" departLane="3" departSpeed="max"/>
    <vehicle id="v_134" type="car" route="svc_E_thru" depart="322.8" departLane="best" departSpeed="max"/>
    <vehicle id="v_135" type="car" route="svc_E_thru" depart="325.2" departLane="best" departSpeed="max"/>
    <vehicle id="v_136" type="car" route="hwy_W_thru" depart="327.6" departLane="0" departSpeed="max"/>
    <vehicle id="v_137" type="car" route="hwy_W_thru" depart="330.0" departLane="1" departSpeed="max"/>
    <vehicle id="v_138" type="car" route="svc_E_thru" depart="332.4" departLane="best" departSpeed="max"/>
    <vehicle id="v_139" type="car" route="hwy_W_thru" depart="334.8" departLane="2" departSpeed="max"/>
    <vehicle id="v_140" type="car" route="svc_W_thru" depart="337.2" departLane="best" departSpeed="max"/>
    <vehicle id="v_141" type="car" route="svc_W_thru" depart="339.6" departLane="best" departSpeed="max"/>
    <vehicle id="v_142" type="car" route="hwy_W_thru" depart="342.0" departLane="3" departSpeed="max"/>
    <vehicle id="v_143" type="car" route="hwy_E_thru" depart="344.4" departLane="0" departSpeed="max"/>
    <vehicle id="v_144" type="car" route="hwy_E_thru" depart="346.8" departLane="1" departSpeed="max"/>
    <vehicle id="v_145" type="car" route="svc_E_thru" depart="349.2" departLane="best" departSpeed="max"/>
    <vehicle id="v_146" type="car" route="hwy_E_thru" depart="351.6" departLane="2" departSpeed="max"/>
    <vehicle id="v_147" type="car" route="hwy_E_thru" depart="354.0" departLane="3" departSpeed="max"/>
    <vehicle id="v_148" type="car" route="hwy_E_thru" depart="356.4" departLane="0" departSpeed="max"/>
    <vehicle id="v_149" type="car" route="svc_W_thru" depart="358.8" departLane="best" departSpeed="max"/>
    <vehicle id="v_150" type="car" route="hwy_E_thru" depart="361.2" departLane="1" departSpeed="max"/>
    <vehicle id="v_151" type="car" route="hwy_E_thru" depart="363.6" departLane="2" departSpeed="max"/>
    <vehicle id="v_152" type="car" route="hwy_W_thru" depart="366.0" departLane="3" departSpeed="max"/>
    <vehicle id="v_153" type="car" route="hwy_W_thru" depart="368.4" departLane="0" departSpeed="max"/>
    <vehicle id="v_154" type="car" route="hwy_E_thru" depart="370.8" departLane="1" departSpeed="max"/>
    <vehicle id="v_155" type="car" route="hwy_E_thru" depart="373.2" departLane="2" departSpeed="max"/>
    <vehicle id="v_156" type="car" route="svc_W_merge_W2" depart="375.6" departLane="best" departSpeed="max"/>
    <vehicle id="v_157" type="car" route="svc_E_thru" depart="378.0" departLane="best" departSpeed="max"/>
    <vehicle id="v_158" type="car" route="hwy_W_thru" depart="380.4" departLane="3" departSpeed="max"/>
    <vehicle id="v_159" type="car" route="svc_E_merge_E1" depart="382.8" departLane="best" departSpeed="max"/>
    <vehicle id="v_160" type="car" route="svc_E_merge_E2" depart="385.2" departLane="best" departSpeed="max"/>
    <vehicle id="v_161" type="car" route="svc_W_merge_W1" depart="387.6" departLane="best" departSpeed="max"/>
    <vehicle id="v_162" type="car" route="hwy_E_thru" depart="390.0" departLane="0" departSpeed="max"/>
    <vehicle id="v_163" type="car" route="svc_W_merge_W2" depart="392.4" departLane="best" departSpeed="max"/>
    <vehicle id="v_164" type="car" route="hwy_W_thru" depart="394.8" departLane="1" departSpeed="max"/>
    <vehicle id="v_165" type="car" route="svc_E_thru" depart="397.2" departLane="best" departSpeed="max"/>
    <vehicle id="v_166" type="car" route="hwy_E_thru" depart="399.6" departLane="2" departSpeed="max"/>
    <vehicle id="v_167" type="car" route="hwy_E_thru" depart="402.0" departLane="3" departSpeed="max"/>
    <vehicle id="v_168" type="car" route="hwy_E_thru" depart="404.4" departLane="0" departSpeed="max"/>
    <vehicle id="v_169" type="car" route="svc_W_thru" depart="406.8" departLane="best" departSpeed="max"/>
    <vehicle id="v_170" type="car" route="hwy_E_thru" depart="409.2" departLane="1" departSpeed="max"/>
    <vehicle id="v_171" type="car" route="svc_E_thru" depart="411.6" departLane="best" departSpeed="max"/>
    <vehicle id="v_172" type="car" route="hwy_E_thru" depart="414.0" departLane="2" departSpeed="max"/>
    <vehicle id="v_173" type="car" route="svc_E_merge_E1" depart="416.4" departLane="best" departSpeed="max"/>
    <vehicle id="v_174" type="car" route="hwy_E_thru" depart="418.8" departLane="3" departSpeed="max"/>
    <vehicle id="v_175" type="car" route="hwy_W_thru" depart="421.2" departLane="0" departSpeed="max"/>
    <vehicle id="v_176" type="car" route="hwy_W_thru" depart="423.6" departLane="1" departSpeed="max"/>
    <vehicle id="v_177" type="car" route="hwy_W_thru" depart="426.0" departLane="2" departSpeed="max"/>
    <vehicle id="v_178" type="car" route="svc_E_thru" depart="428.4" departLane="best" departSpeed="max"/>
    <vehicle id="v_179" type="car" route="hwy_E_thru" depart="430.8" departLane="3" departSpeed="max"/>
    <vehicle id="v_180" type="car" route="svc_E_merge_E2" depart="433.2" departLane="best" departSpeed="max"/>
    <vehicle id="v_181" type="car" route="svc_E_thru" depart="435.6" departLane="best" departSpeed="max"/>
    <vehicle id="v_182" type="car" route="hwy_W_thru" depart="438.0" departLane="0" departSpeed="max"/>
    <vehicle id="v_183" type="car" route="hwy_E_thru" depart="440.4" departLane="1" departSpeed="max"/>
    <vehicle id="v_184" type="car" route="svc_W_thru" depart="442.8" departLane="best" departSpeed="max"/>
    <vehicle id="v_185" type="car" route="hwy_W_thru" depart="445.2" departLane="2" departSpeed="max"/>
    <vehicle id="v_186" type="car" route="svc_E_merge_E2" depart="447.6" departLane="best" departSpeed="max"/>
    <vehicle id="v_187" type="car" route="hwy_W_thru" depart="450.0" departLane="3" departSpeed="max"/>
    <vehicle id="v_188" type="car" route="hwy_W_thru" depart="452.4" departLane="0" departSpeed="max"/>
    <vehicle id="v_189" type="car" route="svc_E_thru" depart="454.8" departLane="best" departSpeed="max"/>
    <vehicle id="v_190" type="car" route="svc_W_thru" depart="457.2" departLane="best" departSpeed="max"/>
    <vehicle id="v_191" type="car" route="hwy_W_thru" depart="459.6" departLane="1" departSpeed="max"/>
    <vehicle id="v_192" type="car" route="svc_E_merge_E2" depart="462.0" departLane="best" departSpeed="max"/>
    <vehicle id="v_193" type="car" route="svc_E_thru" depart="464.4" departLane="best" departSpeed="max"/>
    <vehicle id="v_194" type="car" route="hwy_W_thru" depart="466.8" departLane="2" departSpeed="max"/>
    <vehicle id="v_195" type="car" route="hwy_W_thru" depart="469.2" departLane="3" departSpeed="max"/>
    <vehicle id="v_196" type="car" route="svc_E_thru" depart="471.6" departLane="best" departSpeed="max"/>
    <vehicle id="v_197" type="car" route="svc_W_merge_W2" depart="474.0" departLane="best" departSpeed="max"/>
    <vehicle id="v_198" type="car" route="svc_E_thru" depart="476.4" departLane="best" departSpeed="max"/>
    <vehicle id="v_199" type="car" route="svc_E_merge_E2" depart="478.8" departLane="best" departSpeed="max"/>
    <vehicle id="v_200" type="car" route="hwy_W_thru" depart="481.2" departLane="0" departSpeed="max"/>
    <vehicle id="v_201" type="car" route="hwy_W_thru" depart="483.6" departLane="1" departSpeed="max"/>
    <vehicle id="v_202" type="car" route="hwy_W_thru" depart="486.0" departLane="2" departSpeed="max"/>
    <vehicle id="v_203" type="car" route="svc_E_merge_E1" depart="488.4" departLane="best" departSpeed="max"/>
    <vehicle id="v_204" type="car" route="hwy_E_thru" depart="490.8" departLane="3" departSpeed="max"/>
    <vehicle id="v_205" type="car" route="svc_E_merge_E2" depart="493.2" departLane="best" departSpeed="max"/>
    <vehicle id="v_206" type="car" route="hwy_W_thru" depart="495.6" departLane="0" departSpeed="max"/>
    <vehicle id="v_207" type="car" route="hwy_E_thru" depart="498.0" departLane="1" departSpeed="max"/>
    <vehicle id="v_208" type="car" route="hwy_W_thru" depart="500.4" departLane="2" departSpeed="max"/>
    <vehicle id="v_209" type="car" route="svc_E_thru" depart="502.8" departLane="best" departSpeed="max"/>
    <vehicle id="v_210" type="car" route="svc_E_thru" depart="505.2" departLane="best" departSpeed="max"/>
    <vehicle id="v_211" type="car" route="svc_E_merge_E2" depart="507.6" departLane="best" departSpeed="max"/>
    <vehicle id="v_212" type="car" route="hwy_E_thru" depart="510.0" departLane="3" departSpeed="max"/>
    <vehicle id="v_213" type="car" route="svc_W_thru" depart="512.4" departLane="best" departSpeed="max"/>
    <vehicle id="v_214" type="car" route="svc_W_thru" depart="514.8" departLane="best" departSpeed="max"/>
    <vehicle id="v_215" type="car" route="svc_E_thru" depart="517.2" departLane="best" departSpeed="max"/>
    <vehicle id="v_216" type="car" route="svc_E_merge_E2" depart="519.6" departLane="best" departSpeed="max"/>
    <vehicle id="v_217" type="car" route="hwy_E_thru" depart="522.0" departLane="0" departSpeed="max"/>
    <vehicle id="v_218" type="car" route="hwy_W_thru" depart="524.4" departLane="1" departSpeed="max"/>
    <vehicle id="v_219" type="car" route="hwy_E_thru" depart="526.8" departLane="2" departSpeed="max"/>
    <vehicle id="v_220" type="car" route="hwy_E_thru" depart="529.2" departLane="3" departSpeed="max"/>
    <vehicle id="v_221" type="car" route="svc_E_merge_E2" depart="531.6" departLane="best" departSpeed="max"/>
    <vehicle id="v_222" type="car" route="hwy_E_thru" depart="534.0" departLane="0" departSpeed="max"/>
    <vehicle id="v_223" type="car" route="hwy_W_thru" depart="536.4" departLane="1" departSpeed="max"/>
    <vehicle id="v_224" type="car" route="hwy_E_thru" depart="538.8" departLane="2" departSpeed="max"/>
    <vehicle id="v_225" type="car" route="svc_W_thru" depart="541.2" departLane="best" departSpeed="max"/>
    <vehicle id="v_226" type="car" route="svc_E_thru" depart="543.6" departLane="best" departSpeed="max"/>
    <vehicle id="v_227" type="car" route="svc_E_thru" depart="546.0" departLane="best" departSpeed="max"/>
    <vehicle id="v_228" type="car" route="hwy_W_thru" depart="548.4" departLane="3" departSpeed="max"/>
    <vehicle id="v_229" type="car" route="svc_E_thru" depart="550.8" departLane="best" departSpeed="max"/>
    <vehicle id="v_230" type="car" route="hwy_E_thru" depart="553.2" departLane="0" departSpeed="max"/>
    <vehicle id="v_231" type="car" route="hwy_W_thru" depart="555.6" departLane="1" departSpeed="max"/>
    <vehicle id="v_232" type="car" route="svc_W_merge_W2" depart="558.0" departLane="best" departSpeed="max"/>
    <vehicle id="v_233" type="car" route="hwy_W_thru" depart="560.4" departLane="2" departSpeed="max"/>
    <vehicle id="v_234" type="car" route="svc_W_thru" depart="562.8" departLane="best" departSpeed="max"/>
    <vehicle id="v_235" type="car" route="hwy_W_thru" depart="565.2" departLane="3" departSpeed="max"/>
    <vehicle id="v_236" type="car" route="hwy_W_thru" depart="567.6" departLane="0" departSpeed="max"/>
    <vehicle id="v_237" type="car" route="svc_E_merge_E2" depart="570.0" departLane="best" departSpeed="max"/>
    <vehicle id="v_238" type="car" route="hwy_W_thru" depart="572.4" departLane="1" departSpeed="max"/>
    <vehicle id="v_239" type="car" route="svc_E_thru" depart="574.8" departLane="best" departSpeed="max"/>
    <vehicle id="v_240" type="car" route="hwy_W_thru" depart="577.2" departLane="2" departSpeed="max"/>
    <vehicle id="v_241" type="car" route="hwy_W_thru" depart="579.6" departLane="3" departSpeed="max"/>
    <vehicle id="v_242" type="car" route="svc_E_thru" depart="582.0" departLane="best" departSpeed="max"/>
    <vehicle id="v_243" type="car" route="hwy_W_thru" depart="584.4" departLane="0" departSpeed="max"/>
    <vehicle id="v_244" type="car" route="hwy_W_thru" depart="586.8" departLane="1" departSpeed="max"/>
    <vehicle id="v_245" type="car" route="svc_E_merge_E1" depart="589.2" departLane="best" departSpeed="max"/>
    <vehicle id="v_246" type="car" route="hwy_W_thru" depart="591.6" departLane="2" departSpeed="max"/>
    <vehicle id="v_247" type="car" route="hwy_W_thru" depart="594.0" departLane="3" departSpeed="max"/>
    <vehicle id="v_248" type="car" route="hwy_E_thru" depart="596.4" departLane="0" departSpeed="max"/>
    <vehicle id="v_249" type="car" route="hwy_E_thru" depart="598.8" departLane="1" departSpeed="max"/>
    <vehicle id="v_250" type="car" route="svc_E_thru" depart="601.2" departLane="best" departSpeed="max"/>
    <vehicle id="v_251" type="car" route="hwy_W_thru" depart="603.6" departLane="2" departSpeed="max"/>
    <vehicle id="v_252" type="car" route="svc_W_merge_W2" depart="606.0" departLane="best" departSpeed="max"/>
    <vehicle id="v_253" type="car" route="hwy_W_thru" depart="608.4" departLane="3" departSpeed="max"/>
    <vehicle id="v_254" type="car" route="svc_W_thru" depart="610.8" departLane="best" departSpeed="max"/>
    <vehicle id="v_255" type="car" route="hwy_W_thru" depart="613.2" departLane="0" departSpeed="max"/>
    <vehicle id="v_256" type="car" route="svc_E_merge_E2" depart="615.6" departLane="best" departSpeed="max"/>
    <vehicle id="v_257" type="car" route="hwy_W_thru" depart="618.0" departLane="1" departSpeed="max"/>
    <vehicle id="v_258" type="car" route="svc_W_merge_W2" depart="620.4" departLane="best" departSpeed="max"/>
    <vehicle id="v_259" type="car" route="hwy_E_thru" depart="622.8" departLane="2" departSpeed="max"/>
    <vehicle id="v_260" type="car" route="svc_W_merge_W1" depart="625.2" departLane="best" departSpeed="max"/>
    <vehicle id="v_261" type="car" route="hwy_E_thru" depart="627.6" departLane="3" departSpeed="max"/>
    <vehicle id="v_262" type="car" route="hwy_W_thru" depart="630.0" departLane="0" departSpeed="max"/>
    <vehicle id="v_263" type="car" route="hwy_W_thru" depart="632.4" departLane="1" departSpeed="max"/>
    <vehicle id="v_264" type="car" route="hwy_E_thru" depart="634.8" departLane="2" departSpeed="max"/>
    <vehicle id="v_265" type="car" route="hwy_E_thru" depart="637.2" departLane="3" departSpeed="max"/>
    <vehicle id="v_266" type="car" route="hwy_W_thru" depart="639.6" departLane="0" departSpeed="max"/>
    <vehicle id="v_267" type="car" route="hwy_W_thru" depart="642.0" departLane="1" departSpeed="max"/>
    <vehicle id="v_268" type="car" route="svc_W_merge_W1" depart="644.4" departLane="best" departSpeed="max"/>
    <vehicle id="v_269" type="car" route="hwy_W_thru" depart="646.8" departLane="2" departSpeed="max"/>
    <vehicle id="v_270" type="car" route="svc_E_thru" depart="649.2" departLane="best" departSpeed="max"/>
    <vehicle id="v_271" type="car" route="hwy_E_thru" depart="651.6" departLane="3" departSpeed="max"/>
    <vehicle id="v_272" type="car" route="svc_W_thru" depart="654.0" departLane="best" departSpeed="max"/>
    <vehicle id="v_273" type="car" route="svc_E_thru" depart="656.4" departLane="best" departSpeed="max"/>
    <vehicle id="v_274" type="car" route="hwy_E_thru" depart="658.8" departLane="0" departSpeed="max"/>