<?xml version="1.0" encoding="UTF-8"?>
<!-- Stress demand: 10900 cars over 1500s -->
<routes>
    <vType id="car" accel="1.3" decel="2.25" sigma="0.5" length="5" minGap="2.5" maxSpeed="27.78" lcKeepRight="0"/>
    <route id="hwy_E_thru" edges="hwy_E_s1 hwy_E_s1_accel hwy_E_s2 hwy_E_s2_accel hwy_E_s3"/>
    <route id="hwy_W_thru" edges="hwy_W_s1 hwy_W_s1_accel hwy_W_s2 hwy_W_s2_accel hwy_W_s3"/>
    <route id="svc_E_thru" edges="svc_E_s1 svc_E_s2 svc_E_s3"/>
    <route id="svc_W_thru" edges="svc_W_s1 svc_W_s2 svc_W_s3"/>
    <route id="svc_E_merge_E1" edges="svc_E_s1 merge_E1 hwy_E_s1_accel hwy_E_s2 hwy_E_s2_accel hwy_E_s3"/>
    <route id="svc_E_merge_E2" edges="svc_E_s1 svc_E_s2 merge_E2 hwy_E_s2_accel hwy_E_s3"/>
    <route id="svc_W_merge_W1" edges="svc_W_s1 merge_W1 hwy_W_s1_accel hwy_W_s2 hwy_W_s2_accel hwy_W_s3"/>
    <route id="svc_W_merge_W2" edges="svc_W_s1 svc_W_s2 merge_W2 hwy_W_s2_accel hwy_W_s3"/>

    <vehicle id="v_0" type="car" route="svc_E_merge_E1" depart="0.0" departLane="best" departSpeed="max"/>
    <vehicle id="v_1" type="car" route="svc_E_merge_E2" depart="0.1" departLane="best" departSpeed="max"/>
    <vehicle id="v_2" type="car" route="svc_E_merge_E1" depart="0.3" departLane="best" departSpeed="max"/>
    <vehicle id="v_3" type="car" route="svc_E_merge_E1" depart="0.4" departLane="best" departSpeed="max"/>
    <vehicle id="v_4" type="car" route="hwy_W_thru" depart="0.6" departLane="0" departSpeed="max"/>
    <vehicle id="v_5" type="car" route="svc_E_merge_E1" depart="0.7" departLane="best" departSpeed="max"/>
    <vehicle id="v_6" type="car" route="hwy_E_thru" depart="0.8" departLane="1" departSpeed="max"/>
    <vehicle id="v_7" type="car" route="hwy_E_thru" depart="1.0" departLane="2" departSpeed="max"/>
    <vehicle id="v_8" type="car" route="svc_W_merge_W1" depart="1.1" departLane="best" departSpeed="max"/>
    <vehicle id="v_9" type="car" route="hwy_E_thru" depart="1.2" departLane="3" departSpeed="max"/>
    <vehicle id="v_10" type="car" route="hwy_W_thru" depart="1.4" departLane="0" departSpeed="max"/>
    <vehicle id="v_11" type="car" route="svc_E_merge_E2" depart="1.5" departLane="best" departSpeed="max"/>
    <vehicle id="v_12" type="car" route="svc_E_merge_E2" depart="1.7" departLane="best" departSpeed="max"/>
    <vehicle id="v_13" type="car" route="svc_E_thru" depart="1.8" departLane="best" departSpeed="max"/>
    <vehicle id="v_14" type="car" route="hwy_E_thru" depart="1.9" departLane="1" departSpeed="max"/>
    <vehicle id="v_15" type="car" route="hwy_E_thru" depart="2.1" departLane="2" departSpeed="max"/>
    <vehicle id="v_16" type="car" route="svc_E_merge_E1" depart="2.2" departLane="best" departSpeed="max"/>
    <vehicle id="v_17" type="car" route="svc_E_merge_E2" depart="2.3" departLane="best" departSpeed="max"/>
    <vehicle id="v_18" type="car" route="hwy_E_thru" depart="2.5" departLane="3" departSpeed="max"/>
    <vehicle id="v_19" type="car" route="hwy_W_thru" depart="2.6" departLane="0" departSpeed="max"/>
    <vehicle id="v_20" type="car" route="hwy_W_thru" depart="2.8" departLane="1" departSpeed="max"/>
    <vehicle id="v_21" type="car" route="svc_E_merge_E2" depart="2.9" departLane="best" departSpeed="max"/>
    <vehicle id="v_22" type="car" route="svc_E_merge_E1" depart="3.0" departLane="best" departSpeed="max"/>
    <vehicle id="v_23" type="car" route="hwy_W_thru" depart="3.2" departLane="2" departSpeed="max"/>
    <vehicle id="v_24" type="car" route="svc_W_merge_W1" depart="3.3" departLane="best" departSpeed="max"/>
    <vehicle id="v_25" type="car" route="hwy_W_thru" depart="3.4" departLane="3" departSpeed="max"/>
    <vehicle id="v_26" type="car" route="hwy_E_thru" depart="3.6" departLane="0" departSpeed="max"/>
    <vehicle id="v_27" type="car" route="hwy_E_thru" depart="3.7" departLane="1" departSpeed="max"/>
    <vehicle id="v_28" type="car" route="svc_E_merge_E1" depart="3.9" departLane="best" departSpeed="max"/>
    <vehicle id="v_29" type="car" route="svc_W_merge_W1" depart="4.0" departLane="best" departSpeed="max"/>
    <vehicle id="v_30" type="car" route="hwy_E_thru" depart="4.1" departLane="2" departSpeed="max"/>
    <vehicle id="v_31" type="car" route="svc_E_merge_E1" depart="4.3" departLane="best" departSpeed="max"/>
    <vehicle id="v_32" type="car" route="hwy_E_thru" depart="4.4" departLane="3" departSpeed="max"/>
    <vehicle id="v_33" type="car" route="hwy_E_thru" depart="4.5" departLane="0" departSpeed="max"/>
    <vehicle id="v_34" type="car" route="svc_E_merge_E2" depart="4.7" departLane="best" departSpeed="max"/>
    <vehicle id="v_35" type="car" route="hwy_E_thru" depart="4.8" departLane="1" departSpeed="max"/>
    <vehicle id="v_36" type="car" route="svc_E_merge_E2" depart="5.0" departLane="best" departSpeed="max"/>
    <vehicle id="v_37" type="car" route="svc_W_thru" depart="5.1" departLane="best" departSpeed="max"/>
    <vehicle id="v_38" type="car" route="svc_E_merge_E1" depart="5.2" departLane="best" departSpeed="max"/>
    <vehicle id="v_39" type="car" route="hwy_W_thru" depart="5.4" departLane="2" departSpeed="max"/>
    <vehicle id="v_40" type="car" route="svc_W_merge_W2" depart="5.5" departLane="best" departSpeed="max"/>
    <vehicle id="v_41" type="car" route="hwy_W_thru" depart="5.6" departLane="3" departSpeed="max"/>
    <vehicle id="v_42" type="car" route="hwy_E_thru" depart="5.8" departLane="0" departSpeed="max"/>
    <vehicle id="v_43" type="car" route="svc_E_merge_E1" depart="5.9" departLane="best" departSpeed="max"/>
    <vehicle id="v_44" type="car" route="hwy_W_thru" depart="6.1" departLane="1" departSpeed="max"/>
    <vehicle id="v_45" type="car" route="svc_E_merge_E2" depart="6.2" departLane="best" departSpeed="max"/>
    <vehicle id="v_46" type="car" route="svc_E_merge_E2" depart="6.3" departLane="best" departSpeed="max"/>
    <vehicle id="v_47" type="car" route="hwy_W_thru" depart="6.5" departLane="2" departSpeed="max"/>
    <vehicle id="v_48" type="car" route="hwy_E_thru" depart="6.6" departLane="3" departSpeed="max"/>
    <vehicle id="v_49" type="car" route="hwy_E_thru" depart="6.7" departLane="0" departSpeed="max"/>
    <vehicle id="v_50" type="car" route="hwy_E_thru" depart="6.9" departLane="1" departSpeed="max"/>
    <vehicle id="v_51" type="car" route="hwy_W_thru" depart="7.0" departLane="2" departSpeed="max"/>
    <vehicle id="v_52" type="car" route="svc_W_merge_W2" depart="7.2" departLane="best" departSpeed="max"/>
    <vehicle id="v_53" type="car" route="svc_E_merge_E2" depart="7.3" departLane="best" departSpeed="max"/>
    <vehicle id="v_54" type="car" route="hwy_E_thru" depart="7.4" departLane="3" departSpeed="max"/>
    <vehicle id="v_55" type="car" route="svc_E_merge_E2" depart="7.6" departLane="best" departSpeed="max"/>
    <vehicle id="v_56" type="car" route="svc_W_merge_W2" depart="7.7" departLane="best" departSpeed="max"/>
    <vehicle id="v_57" type="car" route="svc_E_thru" depart="7.8" departLane="best" departSpeed="max"/>
    <vehicle id="v_58" type="car" route="svc_E_merge_E1" depart="8.0" departLane="best" departSpeed="max"/>
    <vehicle id="v_59" type="car" route="svc_E_merge_E2" depart="8.1" departLane="best" departSpeed="max"/>
    <vehicle id="v_60" type="car" route="svc_E_merge_E1" depart="8.3" departLane="best" departSpeed="max"/>
    <vehicle id="v_61" type="car" route="svc_W_thru" depart="8.4" departLane="best" departSpeed="max"/>
    <vehicle id="v_62" type="car" route="hwy_E_thru" depart="8.5" departLane="0" departSpeed="max"/>
    <vehicle id="v_63" type="car" route="svc_W_merge_W1" depart="8.7" departLane="best" departSpeed="max"/>
    <vehicle id="v_64" type="car" route="hwy_W_thru" depart="8.8" departLane="1" departSpeed="max"/>
    <vehicle id="v_65" type="car" route="hwy_E_thru" depart="8.9" departLane="2" departSpeed="max"/>
    <vehicle id="v_66" type="car" route="svc_W_merge_W1" depart="9.1" departLane="best" departSpeed="max"/>
    <vehicle id="v_67" type="car" route="svc_E_merge_E1" depart="9.2" departLane="best" departSpeed="max"/>
    <vehicle id="v_68" type="car" route="svc_W_merge_W2" depart="9.4" departLane="best" departSpeed="max"/>
    <vehicle id="v_69" type="car" route="hwy_E_thru" depart="9.5" departLane="3" departSpeed="max"/>
    <vehicle id="v_70" type="car" route="hwy_E_thru" depart="9.6" departLane="0" departSpeed="max"/>
    <vehicle id="v_71" type="car" route="svc_E_merge_E2" depart="9.8" departLane="best" departSpeed="max"/>
    <vehicle id="v_72" type="car" route="hwy_W_thru" depart="9.9" departLane="1" departSpeed="max"/>
    <vehicle id="v_73" type="car" route="svc_E_merge_E2" depart="10.0" departLane="best" departSpeed="max"/>
    <vehicle id="v_74" type="car" route="hwy_W_thru" depart="10.2" departLane="2" departSpeed="max"/>
    <vehicle id="v_75" type="car" route="svc_E_merge_E1" depart="10.3" departLane="best" departSpeed="max"/>
    <vehicle id="v_76" type="car" route="svc_E_merge_E1" depart="10.5" departLane="best" departSpeed="max"/>
    <vehicle id="v_77" type="car" route="svc_W_merge_W2" depart="10.6" departLane="best" departSpeed="max"/>
    <vehicle id="v_78" type="car" route="hwy_E_thru" depart="10.7" departLane="3" departSpeed="max"/>
    <vehicle id="v_79" type="car" route="svc_E_merge_E1" depart="10.9" departLane="best" departSpeed="max"/>
    <vehicle id="v_80" type="car" route="svc_E_merge_E1" depart="11.0" departLane="best" departSpeed="max"/>
    <vehicle id="v_81" type="car" route="hwy_E_thru" depart="11.1" departLane="0" departSpeed="max"/>
    <vehicle id="v_82" type="car" route="svc_E_merge_E2" depart="11.3" departLane="best" departSpeed="max"/>
    <vehicle id="v_83" type="car" route="hwy_E_thru" depart="11.4" departLane="1" departSpeed="max"/>
    <vehicle id="v_84" type="car" route="svc_E_merge_E2" depart="11.6" departLane="best" departSpeed="max"/>
    <vehicle id="v_85" type="car" route="svc_E_merge_E1" depart="11.7" departLane="best" departSpeed="max"/>
    <vehicle id="v_86" type="car" route="svc_E_merge_E2" depart="11.8" departLane="best" departSpeed="max"/>
    <vehicle id="v_87" type="car" route="svc_W_merge_W1" depart="12.0" departLane="best" departSpeed="max"/>
    <vehicle id="v_88" type="car" route="svc_W_merge_W1" depart="12.1" departLane="best" departSpeed="max"/>
    <vehicle id="v_89" type="car" route="hwy_E_thru" depart="12.2" departLane="2" departSpeed="max"/>
    <vehicle id="v_90" type="car" route="hwy_E_thru" depart="12.4" departLane="3" departSpeed="max"/>
    <vehicle id="v_91" type="car" route="hwy_E_thru" depart="12.5" departLane="0" departSpeed="max"/>
    <vehicle id="v_92" type="car" route="svc_W_merge_W1" depart="12.7" departLane="best" departSpeed="max"/>
    <vehicle id="v_93" type="car" route="hwy_W_thru" depart="12.8" departLane="1" departSpeed="max"/>
    <vehicle id="v_94" type="car" route="svc_E_merge_E2" depart="12.9" departLane="best" departSpeed="max"/>
    <vehicle id="v_95" type="car" route="svc_E_merge_E2" depart="13.1" departLane="best" departSpeed="max"/>
    <vehicle id="v_96" type="car" route="hwy_W_thru" depart="13.2" departLane="2" departSpeed="max"/>
    <vehicle id="v_97" type="car" route="hwy_W_thru" depart="13.3" departLane="3" departSpeed="max"/>
    <vehicle id="v_98" type="car" route="hwy_E_thru" depart="13.5" departLane="0" departSpeed="max"/>
    <vehicle id="v_99" type="car" route="svc_E_merge_E2" depart="13.6" departLane="best" departSpeed="max"/>
    <vehicle id="v_100" type="car" route="svc_E_merge_E1" depart="13.8" departLane="best" departSpeed="max"/>
    <vehicle id="v_101" type="car" route="hwy_E_thru" depart="13.9" departLane="1" departSpeed="max"/>
    <vehicle id="v_102" type="car" route="svc_E_merge_E1" depart="14.0" departLane="best" departSpeed="max"/>
    <vehicle id="v_103" type="car" route="svc_W_merge_W2" depart="14.2" departLane="best" departSpeed="max"/>
    <vehicle id="v_104" type="car" route="hwy_W_thru" depart="14.3" departLane="2" departSpeed="max"/>
    <vehicle id="v_105" type="car" route="hwy_E_thru" depart="14.4" departLane="3" departSpeed="max"/>
    <vehicle id="v_106" type="car" route="svc_E_merge_E2" depart="14.6" departLane="best" departSpeed="max"/>
    <vehicle id="v_107" type="car" route="svc_W_merge_W1" depart="14.7" departLane="best" departSpeed="max"/>
    <vehicle id="v_108" type="car" route="hwy_E_thru" depart="14.9" departLane="0" departSpeed="max"/>
    <vehicle id="v_109" type="car" route="hwy_W_thru" depart="15.0" departLane="1" departSpeed="max"/>
    <vehicle id="v_110" type="car" route="hwy_E_thru" depart="15.1" departLane="2" departSpeed="max"/>
    <vehicle id="v_111" type="car" route="hwy_W_thru" depart="15.3" departLane="3" departSpeed="max"/>
    <vehicle id="v_112" type="car" route="hwy_E_thru" depart="15.4" departLane="0" departSpeed="max"/>
    <vehicle id="v_113" type="car" route="svc_E_merge_E2" depart="15.6" departLane="best" departSpeed="max"/>
    <vehicle id="v_114" type="car" route="svc_W_merge_W1" depart="15.7" departLane="best" departSpeed="max"/>
    <vehicle id="v_115" type="car" route="hwy_E_thru" depart="15.8" departLane="1" departSpeed="max"/>
    <vehicle id="v_116" type="car" route="svc_E_merge_E2" depart="16.0" departLane="best" departSpeed="max"/>
    <vehicle id="v_117" type="car" route="svc_E_merge_E2" depart="16.1" departLane="best" departSpeed="max"/>
    <vehicle id="v_118" type="car" route="svc_E_merge_E2" depart="16.2" departLane="best" departSpeed="max"/>
    <vehicle id="v_119" type="car" route="svc_W_merge_W1" depart="16.4" departLane="best" departSpeed="max"/>
    <vehicle id="v_120" type="car" route="svc_W_merge_W2" depart="16.5" departLane="best" departSpeed="max"/>
    <vehicle id="v_121" type="car" route="svc_E_merge_E2" depart="16.7" departLane="best" departSpeed="max"/>
    <vehicle id="v_122" type="car" route="hwy_E_thru" depart="16.8" departLane="2" departSpeed="max"/>
    <vehicle id="v_123" type="car" route="hwy_W_thru" depart="16.9" departLane="3" departSpeed="max"/>
    <vehicle id="v_124" type="car" route="svc_E_merge_E2" depart="17.1" departLane="best" departSpeed="max"/>
    <vehicle id="v_125" type="car" route="svc_E_merge_E2" depart="17.2" departLane="best" departSpeed="max"/>
    <vehicle id="v_126" type="car" route="svc_W_thru" depart="17.3" departLane="best" departSpeed="max"/>
    <vehicle id="v_127" type="car" route="svc_W_merge_W1" depart="17.5" departLane="best" departSpeed="max"/>
    <vehicle id="v_128" type="car" route="svc_W_merge_W1" depart="17.6" departLane="best" departSpeed="max"/>
    <vehicle id="v_129" type="car" route="hwy_W_thru" depart="17.8" departLane="0" departSpeed="max"/>
    <vehicle id="v_130" type="car" route="svc_E_merge_E1" depart="17.9" departLane="best" departSpeed="max"/>
    <vehicle id="v_131" type="car" route="svc_E_merge_E1" depart="18.0" departLane="best" departSpeed="max"/>
    <vehicle id="v_132" type="car" route="svc_E_merge_E1" depart="18.2" departLane="best" departSpeed="max"/>
    <vehicle id="v_133" type="car" route="hwy_W_thru" depart="18.3" departLane="1" departSpeed="max"/>
    <vehicle id="v_134" type="car" route="hwy_E_thru" depart="18.4" departLane="2" departSpeed="max"/>
    <vehicle id="v_135" type="car" route="hwy_E_thru" depart="18.6" departLane="3" departSpeed="max"/>
    <vehicle id="v_136" type="car" route="svc_E_merge_E1" depart="18.7" departLane="best" departSpeed="max"/>
    <vehicle id="v_137" type="car" route="hwy_E_thru" depart="18.9" departLane="0" departSpeed="max"/>
    <vehicle id="v_138" type="car" route="hwy_W_thru" depart="19.0" departLane="1" departSpeed="max"/>
    <vehicle id="v_139" type="car" route="hwy_W_thru" depart="19.1" departLane="2" departSpeed="max"/>
    <vehicle id="v_140" type="car" route="svc_E_merge_E1" depart="19.3" departLane="best" departSpeed="max"/>
    <vehicle id="v_141" type="car" route="hwy_E_thru" depart="19.4" departLane="3" departSpeed="max"/>
    <vehicle id="v_142" type="car" route="hwy_E_thru" depart="19.5" departLane="0" departSpeed="max"/>
    <vehicle id="v_143" type="car" route="svc_E_merge_E1" depart="19.7" departLane="best" departSpeed="max"/>
    <vehicle id="v_144" type="car" route="hwy_E_thru" depart="19.8" departLane="1" departSpeed="max"/>
    <vehicle id="v_145" type="car" route="svc_E_merge_E1" depart="20.0" departLane="best" departSpeed="max"/>
    <vehicle id="v_146" type="car" route="hwy_E_thru" depart="20.1" departLane="2" departSpeed="max"/>
    <vehicle id="v_147" type="car" route="hwy_E_thru" depart="20.2" departLane="3" departSpeed="max"/>
    <vehicle id="v_148" type="car" route="hwy_E_thru" depart="20.4" departLane="0" departSpeed="max"/>
    <vehicle id="v_149" type="car" route="svc_E_merge_E1" depart="20.5" departLane="best" departSpeed="max"/>
    <vehicle id="v_150" type="car" route="hwy_E_thru" depart="20.6" departLane="1" departSpeed="max"/>
    <vehicle id="v_151" type="car" route="svc_E_merge_E2" depart="20.8" departLane="best" departSpeed="max"/>
    <vehicle id="v_152" type="car" route="svc_E_merge_E1" depart="20.9" departLane="best" departSpeed="max"/>
    <vehicle id="v_153" type="car" route="svc_W_merge_W1" depart="21.1" departLane="best" departSpeed="max"/>
    <vehicle id="v_154" type="car" route="hwy_W_thru" depart="21.2" departLane="2" departSpeed="max"/>
    <vehicle id="v_155" type="car" route="svc_E_merge_E1" depart="21.3" departLane="best" departSpeed="max"/>
    <vehicle id="v_156" type="car" route="hwy_E_thru" depart="21.5" departLane="3" departSpeed="max"/>
    <vehicle id="v_157" type="car" route="hwy_E_thru" depart="21.6" departLane="0" departSpeed="max"/>
    <vehicle id="v_158" type="car" route="svc_E_merge_E2" depart="21.7" departLane="best" departSpeed="max"/>
    <vehicle id="v_159" type="car" route="svc_E_merge_E2" depart="21.9" departLane="best" departSpeed="max"/>
    <vehicle id="v_160" type="car" route="svc_E_merge_E2" depart="22.0" departLane="best" departSpeed="max"/>
    <vehicle id="v_161" type="car" route="svc_E_merge_E2" depart="22.2" departLane="best" departSpeed="max"/>
    <vehicle id="v_162" type="car" route="hwy_E_thru" depart="22.3" departLane="1" departSpeed="max"/>
    <vehicle id="v_163" type="car" route="hwy_E_thru" depart="22.4" departLane="2" departSpeed="max"/>
    <vehicle id="v_164" type="car" route="hwy_W_thru" depart="22.6" departLane="3" departSpeed="max"/>
    <vehicle id="v_165" type="car" route="hwy_E_thru" depart="22.7" departLane="0" departSpeed="max"/>
    <vehicle id="v_166" type="car" route="hwy_W_thru" depart="22.8" departLane="1" departSpeed="max"/>
    <vehicle id="v_167" type="car" route="hwy_E_thru" depart="23.0" departLane="2" departSpeed="max"/>
    <vehicle id="v_168" type="car" route="hwy_E_thru" depart="23.1" departLane="3" departSpeed="max"/>
    <vehicle id="v_169" type="car" route="hwy_W_thru" depart="23.3" departLane="0" departSpeed="max"/>
    <vehicle id="v_170" type="car" route="hwy_E_thru" depart="23.4" departLane="1" departSpeed="max"/>
    <vehicle id="v_171" type="car" route="svc_E_merge_E2" depart="23.5" departLane="best" departSpeed="max"/>
    <vehicle id="v_172" type="car" route="svc_W_merge_W2" depart="23.7" departLane="best" departSpeed="max"/>
    <vehicle id="v_173" type="car" route="svc_W_merge_W2" depart="23.8" departLane="best" departSpeed="max"/>
    <vehicle id="v_174" type="car" route="hwy_E_thru" depart="23.9" departLane="2" departSpeed="max"/>
    <vehicle id="v_175" type="car" route="hwy_E_thru" depart="24.1" departLane="3" departSpeed="max"/>
    <vehicle id="v_176" type="car" route="hwy_E_thru" depart="24.2" departLane="0" departSpeed="max"/>
    <vehicle id="v_177" type="car" route="svc_E_merge_E1" depart="24.4" departLane="best" departSpeed="max"/>
    <vehicle id="v_178" type="car" route="svc_W_merge_W1" depart="24.5" departLane="best" departSpeed="max"/>
    <vehicle id="v_179" type="car" route="hwy_W_thru" depart="24.6" departLane="1" departSpeed="max"/>
    <vehicle id="v_180" type="car" route="svc_E_merge_E1" depart="24.8" departLane="best" departSpeed="max"/>
    <vehicle id="v_181" type="car" route="svc_E_merge_E2" depart="24.9" departLane="best" departSpeed="max"/>
    <vehicle id="v_182" type="car" route="hwy_E_thru" depart="25.0" departLane="2" departSpeed="max"/>
    <vehicle id="v_183" type="car" route="hwy_E_thru" depart="25.2" departLane="3" departSpeed="max"/>
    <vehicle id="v_184" type="car" route="svc_E_merge_E2" depart="25.3" departLane="best" departSpeed="max"/>
    <vehicle id="v_185" type="car" route="svc_E_merge_E2" depart="25.5" departLane="best" departSpeed="max"/>
    <vehicle id="v_186" type="car" route="svc_E_merge_E1" depart="25.6" departLane="best" departSpeed="max"/>
    <vehicle id="v_187" type="car" route="hwy_W_thru" depart="25.7" departLane="0" departSpeed="max"/>
    <vehicle id="v_188" type="car" route="hwy_W_thru" depart="25.9" departLane="1" departSpeed="max"/>
    <vehicle id="v_189" type="car" route="hwy_W_thru" depart="26.0" departLane="2" departSpeed="max"/>
    <vehicle id="v_190" type="car" route="svc_W_merge_W1" depart="26.1" departLane="best" departSpeed="max"/>
    <vehicle id="v_191" type="car" route="hwy_E_thru" depart="26.3" departLane="3" departSpeed="max"/>
    <vehicle id="v_192" type="car" route="hwy_W_thru" depart="26.4" departLane="0" departSpeed="max"/>
    <vehicle id="v_193" type="car" route="hwy_E_thru" depart="26.6" departLane="1" departSpeed="max"/>
    <vehicle id="v_194" type="car" route="svc_W_merge_W2" depart="26.7" departLane="best" departSpeed="max"/>
    <vehicle id="v_195" type="car" route="hwy_W_thru" depart="26.8" departLane="2" departSpeed="max"/>
    <vehicle id="v_196" type="car" route="svc_E_merge_E1" depart="27.0" departLane="best" departSpeed="max"/>
    <vehicle id="v_197" type="car" route="svc_E_merge_E2" depart="27.1" departLane="best" departSpeed="max"/>
    <vehicle id="v_198" type="car" route="svc_E_merge_E2" depart="27.2" departLane="best" departSpeed="max"/>
    <vehicle id="v_199" type="car" route="svc_E_merge_E1" depart="27.4" departLane="best" departSpeed="max"/>
    <vehicle id="v_200" type="car" route="svc_E_merge_E1" depart="27.5" departLane="best" departSpeed="max"/>
    <vehicle id="v_201" type="car" route="svc_E_merge_E1" depart="27.7" departLane="best" departSpeed="max"/>
    <vehicle id="v_202" type="car" route="hwy_E_thru" depart="27.8" departLane="3" departSpeed="max"/>
    <vehicle id="v_203" type="car" route="hwy_E_thru" depart="27.9" departLane="0" departSpeed="max"/>
    <vehicle id="v_204" type="car" route="hwy_E_thru" depart="28.1" departLane="1" departSpeed="max"/>
    <vehicle id="v_205" type="car" route="hwy_E_thru" depart="28.2" departLane="2" departSpeed="max"/>
    <vehicle id="v_206" type="car" route="hwy_E_thru" depart="28.3" departLane="3" departSpeed="max"/>
    <vehicle id="v_207" type="car" route="hwy_E_thru" depart="28.5" departLane="0" departSpeed="max"/>
    <vehicle id="v_208" type="car" route="hwy_E_thru" depart="28.6" departLane="1" departSpeed="max"/>
    <vehicle id="v_209" type="car" route="svc_E_merge_E1" depart="28.8" departLane="best" departSpeed="max"/>
    <vehicle id="v_210" type="car" route="hwy_E_thru" depart="28.9" departLane="2" departSpeed="max"/>
    <vehicle id="v_211" type="car" route="hwy_W_thru" depart="29.0" departLane="3" departSpeed="max"/>
    <vehicle id="v_212" type="car" route="svc_E_merge_E2" depart="29.2" departLane="best" departSpeed="max"/>
    <vehicle id="v_213" type="car" route="svc_W_merge_W1" depart="29.3" departLane="best" departSpeed="max"/>
    <vehicle id="v_214" type="car" route="svc_E_merge_E2" depart="29.4" departLane="best" departSpeed="max"/>
    <vehicle id="v_215" type="car" route="svc_E_merge_E2" depart="29.6" departLane="best" departSpeed="max"/>
    <vehicle id="v_216" type="car" route="hwy_W_thru" depart="29.7" departLane="0" departSpeed="max"/>
    <vehicle id="v_217" type="car" route="svc_E_merge_E2" depart="29.9" departLane="best" departSpeed="max"/>
    <vehicle id="v_218" type="car" route="svc_E_merge_E2" depart="30.0" departLane="best" departSpeed="max"/>
    <vehicle id="v_219" type="car" route="svc_E_thru" depart="30.1" departLane="best" departSpeed="max"/>
    <vehicle id="v_220" type="car" route="hwy_E_thru" depart="30.3" departLane="1" departSpeed="max"/>
    <vehicle id="v_221" type="car" route="svc_E_merge_E2" depart="30.4" departLane="best" departSpeed="max"/>
    <vehicle id="v_222" type="car" route="svc_E_merge_E2" depart="30.6" departLane="best" departSpeed="max"/>
    <vehicle id="v_223" type="car" route="svc_E_thru" depart="30.7" departLane="best" departSpeed="max"/>
    <vehicle id="v_224" type="car" route="hwy_E_thru" depart="30.8" departLane="2" departSpeed="max"/>
    <vehicle id="v_225" type="car" route="svc_E_merge_E2" depart="31.0" departLane="best" departSpeed="max"/>
    <vehicle id="v_226" type="car" route="svc_E_merge_E2" depart="31.1" departLane="best" departSpeed="max"/>
    <vehicle id="v_227" type="car" route="hwy_E_thru" depart="31.2" departLane="3" departSpeed="max"/>
    <vehicle id="v_228" type="car" route="svc_E_thru" depart="31.4" departLane="best" departSpeed="max"/>
    <vehicle id="v_229" type="car" route="svc_E_merge_E1" depart="31.5" departLane="best" departSpeed="max"/>
    <vehicle id="v_230" type="car" route="hwy_E_thru" depart="31.7" departLane="0" departSpeed="max"/>
    <vehicle id="v_231" type="car" route="hwy_E_thru" depart="31.8" departLane="1" departSpeed="max"/>
    <vehicle id="v_232" type="car" route="svc_E_merge_E2" depart="31.9" departLane="best" departSpeed="max"/>
    <vehicle id="v_233" type="car" route="svc_E_merge_E2" depart="32.1" departLane="best" departSpeed="max"/>
    <vehicle id="v_234" type="car" route="hwy_E_thru" depart="32.2" departLane="2" departSpeed="max"/>
    <vehicle id="v_235" type="car" route="hwy_E_thru" depart="32.3" departLane="3" departSpeed="max"/>
    <vehicle id="v_236" type="car" route="svc_E_merge_E2" depart="32.5" departLane="best" departSpeed="max"/>
    <vehicle id="v_237" type="car" route="hwy_E_thru" depart="32.6" departLane="0" departSpeed="max"/>
    <vehicle id="v_238" type="car" route="hwy_E_thru" depart="32.8" departLane="1" departSpeed="max"/>
    <vehicle id="v_239" type="car" route="svc_E_merge_E2" depart="32.9" departLane="best" departSpeed="max"/>
    <vehicle id="v_240" type="car" route="svc_E_merge_E2" depart="33.0" departLane="best" departSpeed="max"/>
    <vehicle id="v_241" type="car" route="svc_E_thru" depart="33.2" departLane="best" departSpeed="max"/>
    <vehicle id="v_242" type="car" route="hwy_W_thru" depart="33.3" departLane="2" departSpeed="max"/>
    <vehicle id="v_243" type="car" route="hwy_E_thru" depart="33.4" departLane="3" departSpeed="max"/>
    <vehicle id="v_244" type="car" route="hwy_E_thru" depart="33.6" departLane="0" departSpeed="max"/>
    <vehicle id="v_245" type="car" route="svc_E_merge_E1" depart="33.7" departLane="best" departSpeed="max"/>
    <vehicle id="v_246" type="car" route="svc_W_merge_W1" depart="33.9" departLane="best" departSpeed="max"/>
    <vehicle id="v_247" type="car" route="svc_E_thru" depart="34.0" departLane="best" departSpeed="max"/>
    <vehicle id="v_248" type="car" route="hwy_W_thru" depart="34.1" departLane="1" departSpeed="max"/>
    <vehicle id="v_249" type="car" route="svc_E_merge_E1" depart="34.3" departLane="best" departSpeed="max"/>
    <vehicle id="v_250" type="car" route="svc_E_merge_E2" depart="34.4" departLane="best" departSpeed="max"/>
    <vehicle id="v_251" type="car" route="svc_E_merge_E1" depart="34.5" departLane="best" departSpeed="max"/>
    <vehicle id="v_252" type="car" route="hwy_W_thru" depart="34.7" departLane="2" departSpeed="max"/>
    <vehicle id="v_253" type="car" route="svc_E_merge_E1" depart="34.8" departLane="best" departSpeed="max"/>
    <vehicle id="v_254" type="car" route="svc_E_merge_E2" depart="35.0" departLane="best" departSpeed="max"/>
    <vehicle id="v_255" type="car" route="hwy_E_thru" depart="35.1" departLane="3" departSpeed="max"/>
    <vehicle id="v_256" type="car" route="svc_E_merge_E1" depart="35.2" departLane="best" departSpeed="max"/>
    <vehicle id="v_257" type="car" route="svc_E_merge_E2" depart="35.4" departLane="best" departSpeed="max"/>
    <vehicle id="v_258" type="car" route="svc_E_merge_E1" depart="35.5" departLane="best" departSpeed="max"/>
    <vehicle id="v_259" type="car" route="hwy_E_thru" depart="35.6" departLane="0" departSpeed="max"/>
    <vehicle id="v_260" type="car" route="svc_W_merge_W2" depart="35.8" departLane="best" departSpeed="max"/>
    <vehicle id="v_261" type="car" route="svc_E_merge_E2" depart="35.9" departLane="best" departSpeed="max"/>
    <vehicle id="v_262" type="car" route="svc_E_merge_E1" depart="36.1" departLane="best" departSpeed="max"/>
    <vehicle id="v_263" type="car" route="svc_E_merge_E2" depart="36.2" departLane="best" departSpeed="max"/>
    <vehicle id="v_264" type="car" route="svc_E_merge_E1" depart="36.3" departLane="best" departSpeed="max"/>
    <vehicle id="v_265" type="car" route="hwy_E_thru" depart="36.5" departLane="1" departSpeed="max"/>
    <vehicle id="v_266" type="car" route="hwy_E_thru" depart="36.6" departLane="2" departSpeed="max"/>
    <vehicle id="v_267" type="car" route="svc_E_merge_E2" depart="36.7" departLane="best" departSpeed="max"/>
    <vehicle id="v_268" type="car" route="svc_E_merge_E1" depart="36.9" departLane="best" departSpeed="max"/>
    <vehicle id="v_269" type="car" route="hwy_E_thru" depart="37.0" departLane="3" departSpeed="max"/>
    <vehicle id="v_270" type="car" route="svc_W_merge_W1" depart="37.2" departLane="best" departSpeed="max"/>
    <vehicle id="v_271" type="car" route="hwy_E_thru" depart="37.3" departLane="0" departSpeed="max"/>
    <vehicle id="v_272" type="car" route="hwy_E_thru" depart="37.4" departLane="1" departSpeed="max"/>
    <vehicle id="v_273" type="car" route="hwy_W_thru" depart="37.6" departLane="2" departSpeed="max"/>