<?xml version="1.0" encoding="UTF-8"?>
<configuration>
  <input>
    <net-file value="..\networks\highway.net.xml"/>
    <route-files value="..\networks\highway_stress.rou.xml"/>
  </input>
  <time>
    <begin value="0"/>
    <end value="7200"/>
    <step-length value="1.0"/>
  </time>
  <processing>
    <time-to-teleport value="-1"/>
  </processing>
  <report>
    <verbose value="false"/>
    <no-step-log value="true"/>
  </report>
</configuration>
